
     RDKit          3D

  0  0  0  0  0  0  0  0  0  0999 V3000
M  V30 BEGIN CTAB
M  V30 COUNTS 99 108 0 0 0
M  V30 BEGIN ATOM
M  V30 1 Pd 4.1990 5.1441 -0.6996 0
M  V30 2 Pb 4.2943 4.3735 -0.0644 0
M  V30 3 Pb 5.0550 5.5218 -0.3427 0
M  V30 4 Pb 4.1170 5.9616 -1.2736 0
M  V30 5 Pb 3.3352 4.8075 -1.0818 0
M  V30 6 Pd 4.3410 9.4072 1.2701 0
M  V30 7 Pb 3.3853 9.6781 1.3740 0
M  V30 8 Pb 4.2644 9.4210 0.2746 0
M  V30 9 Pb 5.2366 8.9800 1.1731 0
M  V30 10 Pb 4.3503 9.2285 2.2516 0
M  V30 11 Pd 1.8656 -3.9361 -1.6973 0
M  V30 12 Pb 2.0737 -4.4202 -0.8481 0
M  V30 13 Pb 1.5138 -3.4693 -2.5030 0
M  V30 14 Pb 1.7364 -4.8122 -2.1572 0
M  V30 15 Pb 2.0825 -3.0310 -1.3182 0
M  V30 16 Pd -2.0895 -7.5797 -3.3512 0
M  V30 17 Pb -3.0543 -7.7893 -3.2616 0
M  V30 18 Pb -1.8910 -8.2627 -2.6503 0
M  V30 19 Pb -2.3369 -6.7910 -3.9256 0
M  V30 20 Pb -1.1122 -7.4063 -3.4460 0
M  V30 21 Pd 1.7255 0.7320 2.1457 0
M  V30 22 Pb 0.9119 0.1618 2.2193 0
M  V30 23 Pb 1.4818 1.1348 3.0323 0
M  V30 24 Pb 1.9835 0.3037 1.2765 0
M  V30 25 Pb 2.5573 1.2846 2.0776 0
M  V30 26 Pd -0.3690 5.3799 4.3259 0
M  V30 27 Pb -0.5336 6.2759 3.9133 0
M  V30 28 Pb -1.1699 5.0030 3.8624 0
M  V30 29 Pb 0.4470 5.7822 4.7395 0
M  V30 30 Pb -0.1273 4.4774 4.6836 0
M  V30 31 Pd -1.7042 -6.1820 1.4032 0
M  V30 32 Pb -1.7239 -5.2351 1.7125 0
M  V30 33 Pb -2.7079 -6.1608 1.4440 0
M  V30 34 Pb -0.6991 -6.1592 1.4011 0
M  V30 35 Pb -1.6845 -7.1210 1.0515 0
M  V30 36 Pd -2.7643 1.3237 -1.6853 0
M  V30 37 Pb -3.4823 0.6649 -1.4497 0
M  V30 38 Pb -2.4320 0.7566 -2.4342 0
M  V30 39 Pb -2.0368 1.9774 -1.9013 0
M  V30 40 Pb -3.0492 1.8787 -0.9047 0
M  V30 41 Pd -5.1979 -4.1894 -1.7610 0
M  V30 42 Pb -4.8088 -4.0590 -2.6765 0
M  V30 43 Pb -5.4168 -5.1240 -2.0182 0
M  V30 44 Pb -5.4267 -4.4460 -0.8238 0
M  V30 45 Pb -5.1110 -3.2241 -1.4988 0
M  V30 46 Ag 4.2540 8.9886 2.9530 0
M  V30 47 Fe 2.7586 7.5915 4.1531 0
M  V30 48 Ag 1.0596 6.1487 4.9662 0
M  V30 49 Ag 2.6876 4.6264 -1.4204 0
M  V30 50 Fe 0.6110 3.4990 -1.6822 0
M  V30 51 Ag -1.4861 2.4542 -2.0863 0
M  V30 52 Ag 2.6524 9.7475 1.5107 0
M  V30 53 Fe 0.9007 8.4971 2.5121 0
M  V30 54 Ag -0.5448 6.9507 3.5867 0
M  V30 55 Ag -1.7560 4.7351 3.4803 0
M  V30 56 Fe -2.5403 3.5107 1.6037 0
M  V30 57 Ag -3.2410 2.2730 -0.2972 0
M  V30 58 Ag 0.3091 -0.2693 2.3070 0
M  V30 59 Fe -0.7311 -2.3910 2.1148 0
M  V30 60 Ag -1.7590 -4.5181 1.9171 0
M  V30 61 Ag 1.1471 -3.0907 -3.0292 0
M  V30 62 Fe -0.4849 -1.3825 -3.1995 0
M  V30 63 Ag -2.0981 0.3341 -2.9504 0
M  V30 64 Ba 1.6881 -5.4500 -2.5453 0
M  V30 65 Ga 0.6370 -6.3700 -3.0093 0
M  V30 66 Ba -0.3716 -7.3236 -3.4994 0
M  V30 67 Ba -4.0413 0.2177 -1.2185 0
M  V30 68 Ga -4.5236 -1.1780 -1.2984 0
M  V30 69 Ba -5.1620 -2.5111 -1.2587 0
M  V30 70 Ba 5.6763 5.8580 -0.0871 0
M  V30 71 Ga 5.8527 7.1963 0.5042 0
M  V30 72 Ba 5.8427 8.5544 1.0754 0
M  V30 73 Ba -3.4540 -6.0688 1.5159 0
M  V30 74 Ga -4.5090 -5.4105 0.7151 0
M  V30 75 Ba -5.5125 -4.7408 -0.1402 0
M  V30 76 Ba -2.5731 -6.1684 -4.2864 0
M  V30 77 Ga -3.5073 -5.0926 -3.8674 0
M  V30 78 Ba -4.4551 -4.0765 -3.3433 0
M  V30 79 Ba 4.0737 6.6124 -1.6482 0
M  V30 80 Ga 4.1266 7.9964 -1.1380 0
M  V30 81 Ba 4.1958 9.3065 -0.4623 0
M  V30 82 Ba 1.2782 1.3882 3.7124 0
M  V30 83 Ga 0.6841 2.6045 4.3060 0
M  V30 84 Ba 0.0920 3.8045 4.9341 0
M  V30 85 Ba 2.1432 -4.8225 -0.2187 0
M  V30 86 Ga 1.1149 -5.4790 0.6178 0
M  V30 87 Ba 0.0549 -6.1211 1.4256 0
M  V30 88 Ba 2.2922 -2.3220 -1.1647 0
M  V30 89 Ga 2.2002 -1.2032 -0.2014 0
M  V30 90 Ba 2.2324 0.0247 0.6236 0
M  V30 91 Ba 4.4321 3.8488 0.4584 0
M  V30 92 Ga 3.7669 2.7613 1.2058 0
M  V30 93 Ba 3.2070 1.6552 2.0103 0
M  V30 94 Ba -3.7822 -7.8957 -3.1751 0
M  V30 95 Ga -4.7559 -6.9152 -2.6995 0
M  V30 96 Ba -5.5925 -5.8208 -2.2103 0
M  V30 97 Ba -1.7753 -8.7012 -2.0542 0
M  V30 98 Ga -1.7002 -8.3118 -0.6319 0
M  V30 99 Ba -1.6421 -7.8126 0.7568 0
M  V30 END ATOM
M  V30 BEGIN BOND
M  V30 1 1 1 2
M  V30 2 1 1 3
M  V30 3 1 1 4
M  V30 4 1 1 5
M  V30 5 1 6 7
M  V30 6 1 6 8
M  V30 7 1 6 9
M  V30 8 1 6 10
M  V30 9 1 11 12
M  V30 10 1 11 13
M  V30 11 1 11 14
M  V30 12 1 11 15
M  V30 13 1 16 17
M  V30 14 1 16 18
M  V30 15 1 16 19
M  V30 16 1 16 20
M  V30 17 1 21 22
M  V30 18 1 21 23
M  V30 19 1 21 24
M  V30 20 1 21 25
M  V30 21 1 26 27
M  V30 22 1 26 28
M  V30 23 1 26 29
M  V30 24 1 26 30
M  V30 25 1 31 32
M  V30 26 1 31 33
M  V30 27 1 31 34
M  V30 28 1 31 35
M  V30 29 1 36 37
M  V30 30 1 36 38
M  V30 31 1 36 39
M  V30 32 1 36 40
M  V30 33 1 41 42
M  V30 34 1 41 43
M  V30 35 1 41 44
M  V30 36 1 41 45
M  V30 37 1 46 47
M  V30 38 1 47 48
M  V30 39 1 49 50
M  V30 40 1 50 51
M  V30 41 1 52 53
M  V30 42 1 53 54
M  V30 43 1 55 56
M  V30 44 1 56 57
M  V30 45 1 58 59
M  V30 46 1 59 60
M  V30 47 1 61 62
M  V30 48 1 62 63
M  V30 49 1 64 65
M  V30 50 1 65 66
M  V30 51 1 67 68
M  V30 52 1 68 69
M  V30 53 1 70 71
M  V30 54 1 71 72
M  V30 55 1 73 74
M  V30 56 1 74 75
M  V30 57 1 76 77
M  V30 58 1 77 78
M  V30 59 1 79 80
M  V30 60 1 80 81
M  V30 61 1 82 83
M  V30 62 1 83 84
M  V30 63 1 85 86
M  V30 64 1 86 87
M  V30 65 1 88 89
M  V30 66 1 89 90
M  V30 67 1 91 92
M  V30 68 1 92 93
M  V30 69 1 94 95
M  V30 70 1 95 96
M  V30 71 1 97 98
M  V30 72 1 98 99
M  V30 73 1 2 91
M  V30 74 1 3 70
M  V30 75 1 4 79
M  V30 76 1 5 49
M  V30 77 1 7 52
M  V30 78 1 8 81
M  V30 79 1 9 72
M  V30 80 1 10 46
M  V30 81 1 12 85
M  V30 82 1 13 61
M  V30 83 1 14 64
M  V30 84 1 15 88
M  V30 85 1 17 94
M  V30 86 1 18 97
M  V30 87 1 19 76
M  V30 88 1 20 66
M  V30 89 1 22 58
M  V30 90 1 23 82
M  V30 91 1 24 90
M  V30 92 1 25 93
M  V30 93 1 27 54
M  V30 94 1 28 55
M  V30 95 1 29 48
M  V30 96 1 30 84
M  V30 97 1 32 60
M  V30 98 1 33 73
M  V30 99 1 34 87
M  V30 100 1 35 99
M  V30 101 1 37 67
M  V30 102 1 38 63
M  V30 103 1 39 51
M  V30 104 1 40 57
M  V30 105 1 42 78
M  V30 106 1 43 96
M  V30 107 1 44 75
M  V30 108 1 45 69
M  V30 END BOND
M  V30 END CTAB
M  END

$$$$
