
     RDKit          3D

  0  0  0  0  0  0  0  0  0  0999 V3000
M  V30 BEGIN CTAB
M  V30 COUNTS 99 108 0 0 0
M  V30 BEGIN ATOM
M  V30 1 Pd -0.9070 1.7574 -6.1568 0
M  V30 2 Pb -0.3755 1.5753 -6.9890 0
M  V30 3 Pb -0.7309 2.7226 -6.3230 0
M  V30 4 Pb -1.1362 0.7850 -6.0776 0
M  V30 5 Pb -1.3109 2.0011 -5.2735 0
M  V30 6 Pd -1.0809 -3.5513 -3.3904 0
M  V30 7 Pb -0.1850 -3.8000 -3.7572 0
M  V30 8 Pb -0.9714 -4.2088 -2.6401 0
M  V30 9 Pb -1.9241 -3.2016 -2.9872 0
M  V30 10 Pb -1.2390 -2.9594 -4.1824 0
M  V30 11 Pd -4.7959 1.0589 8.5746 0
M  V30 12 Pb -4.1709 0.6256 9.2384 0
M  V30 13 Pb -5.3594 1.3835 7.8153 0
M  V30 14 Pb -4.0408 1.5649 8.1587 0
M  V30 15 Pb -5.5288 0.4887 8.9391 0
M  V30 16 Pd -2.1798 -3.8488 8.9231 0
M  V30 17 Pb -1.3374 -3.5232 8.5000 0
M  V30 18 Pb -2.1357 -4.6259 8.2915 0
M  V30 19 Pb -3.0707 -4.1209 9.2796 0
M  V30 20 Pb -2.2509 -3.0031 9.4726 0
M  V30 21 Pd 4.9290 4.7816 -7.7074 0
M  V30 22 Pb 5.0252 5.3225 -6.8762 0
M  V30 23 Pb 5.6879 4.1853 -7.4490 0
M  V30 24 Pb 4.0938 5.2970 -7.8597 0
M  V30 25 Pb 4.6024 4.1158 -8.3782 0
M  V30 26 Pd 1.5463 3.1188 -1.5507 0
M  V30 27 Pb 1.9193 3.8858 -2.0789 0
M  V30 28 Pb 1.2294 2.3511 -0.9909 0
M  V30 29 Pb 2.4754 3.0242 -1.1874 0
M  V30 30 Pb 0.6187 3.1773 -1.9370 0
M  V30 31 Pd -2.7897 1.4356 1.8033 0
M  V30 32 Pb -3.2306 0.9024 1.0827 0
M  V30 33 Pb -3.6713 1.6379 2.2329 0
M  V30 34 Pb -1.8947 1.1850 1.4260 0
M  V30 35 Pb -2.3686 1.8903 2.5866 0
M  V30 36 Pd 5.1952 -0.3055 -2.6962 0
M  V30 37 Pb 4.9702 -1.1142 -3.2380 0
M  V30 38 Pb 4.4468 -0.5414 -2.0806 0
M  V30 39 Pb 5.3375 0.5096 -2.1366 0
M  V30 40 Pb 5.8764 0.0039 -3.3594 0
M  V30 41 Pd 0.2754 -4.3600 2.1484 0
M  V30 42 Pb 0.6486 -3.6277 1.5838 0
M  V30 43 Pb -0.0343 -4.8459 1.3293 0
M  V30 44 Pb 0.5877 -3.8915 2.9726 0
M  V30 45 Pb -0.1420 -5.0364 2.7593 0
M  V30 46 Ag 6.1848 3.6893 -7.1875 0
M  V30 47 Fe 6.4130 1.9621 -5.5745 0
M  V30 48 Ag 6.3273 0.3026 -3.8787 0
M  V30 49 Ag -0.7516 -3.2956 8.0960 0
M  V30 50 Fe 0.1393 -3.3590 5.8989 0
M  V30 51 Ag 0.7831 -3.5881 3.6277 0
M  V30 52 Ag -0.5539 3.4163 -6.5278 0
M  V30 53 Fe 1.2830 4.7257 -7.2392 0
M  V30 54 Ag 3.4043 5.5706 -7.8543 0
M  V30 55 Ag 4.8944 5.6448 -6.2139 0
M  V30 56 Fe 3.6444 5.1523 -4.2530 0
M  V30 57 Ag 2.3200 4.4288 -2.4159 0
M  V30 58 Ag -5.9352 -0.0751 9.2037 0
M  V30 59 Fe -5.3018 -2.3221 9.5510 0
M  V30 60 Ag -3.7784 -4.1241 9.5071 0
M  V30 61 Ag -5.6744 1.5872 7.1659 0
M  V30 62 Fe -5.1414 1.7432 4.8559 0
M  V30 63 Ag -4.2878 1.7788 2.6387 0
M  V30 64 Ag 0.5171 -3.8964 -4.0008 0
M  V30 65 Fe 2.6824 -2.9285 -3.9004 0
M  V30 66 Ag 4.7001 -1.7164 -3.5919 0
M  V30 67 Ag -3.5045 1.9067 7.7622 0
M  V30 68 Fe -2.6850 2.1543 5.5483 0
M  V30 69 Ag -2.1382 2.1775 3.2386 0
M  V30 70 Ag -2.0622 -5.1397 7.7464 0
M  V30 71 Fe -1.2946 -5.4399 5.5152 0
M  V30 72 Ag -0.4577 -5.4683 3.2890 0
M  V30 73 Ag 0.1047 1.5263 -7.5687 0
M  V30 74 Fe 2.1590 2.4385 -8.3495 0
M  V30 75 Ag 4.1996 3.5966 -8.7424 0
M  V30 76 Ag 3.8493 -0.6558 -1.6462 0
M  V30 77 Fe 2.4289 -1.9258 -0.2334 0
M  V30 78 Ag 0.8961 -3.0413 1.1925 0
M  V30 79 Ag -2.5086 -2.8564 -2.6733 0
M  V30 80 Fe -3.1255 -1.2162 -1.0730 0
M  V30 81 Ag -3.5322 0.4476 0.5697 0
M  V30 82 Ba 1.0142 1.7671 -0.5697 0
M  V30 83 Ga -0.1306 1.3974 0.2888 0
M  V30 84 Ba -1.2312 0.9436 1.1644 0
M  V30 85 Ba -1.5461 2.2607 -4.6077 0
M  V30 86 Ga -0.8219 2.7071 -3.3943 0
M  V30 87 Ba -0.0969 3.1562 -2.1825 0
M  V30 88 Ba -1.3316 0.0603 -6.1252 0
M  V30 89 Ga -1.3260 -1.2192 -5.3878 0
M  V30 90 Ba -1.4035 -2.5746 -4.8061 0
M  V30 91 Ba -0.9193 -4.7512 -2.1194 0
M  V30 92 Ga -0.5782 -4.9374 -0.6931 0
M  V30 93 Ba -0.2566 -5.2263 0.7206 0
M  V30 94 Ba 3.1910 2.9713 -0.9618 0
M  V30 95 Ga 4.3012 2.0599 -1.3026 0
M  V30 96 Ba 5.3627 1.1094 -1.6883 0
M  V30 97 Ba -3.6993 0.2688 9.7157 0
M  V30 98 Ga -3.0164 -1.0534 9.7741 0
M  V30 99 Ba -2.3123 -2.3615 9.8777 0
M  V30 END ATOM
M  V30 BEGIN BOND
M  V30 1 1 1 2
M  V30 2 1 1 3
M  V30 3 1 1 4
M  V30 4 1 1 5
M  V30 5 1 6 7
M  V30 6 1 6 8
M  V30 7 1 6 9
M  V30 8 1 6 10
M  V30 9 1 11 12
M  V30 10 1 11 13
M  V30 11 1 11 14
M  V30 12 1 11 15
M  V30 13 1 16 17
M  V30 14 1 16 18
M  V30 15 1 16 19
M  V30 16 1 16 20
M  V30 17 1 21 22
M  V30 18 1 21 23
M  V30 19 1 21 24
M  V30 20 1 21 25
M  V30 21 1 26 27
M  V30 22 1 26 28
M  V30 23 1 26 29
M  V30 24 1 26 30
M  V30 25 1 31 32
M  V30 26 1 31 33
M  V30 27 1 31 34
M  V30 28 1 31 35
M  V30 29 1 36 37
M  V30 30 1 36 38
M  V30 31 1 36 39
M  V30 32 1 36 40
M  V30 33 1 41 42
M  V30 34 1 41 43
M  V30 35 1 41 44
M  V30 36 1 41 45
M  V30 37 1 46 47
M  V30 38 1 47 48
M  V30 39 1 49 50
M  V30 40 1 50 51
M  V30 41 1 52 53
M  V30 42 1 53 54
M  V30 43 1 55 56
M  V30 44 1 56 57
M  V30 45 1 58 59
M  V30 46 1 59 60
M  V30 47 1 61 62
M  V30 48 1 62 63
M  V30 49 1 64 65
M  V30 50 1 65 66
M  V30 51 1 67 68
M  V30 52 1 68 69
M  V30 53 1 70 71
M  V30 54 1 71 72
M  V30 55 1 73 74
M  V30 56 1 74 75
M  V30 57 1 76 77
M  V30 58 1 77 78
M  V30 59 1 79 80
M  V30 60 1 80 81
M  V30 61 1 82 83
M  V30 62 1 83 84
M  V30 63 1 85 86
M  V30 64 1 86 87
M  V30 65 1 88 89
M  V30 66 1 89 90
M  V30 67 1 91 92
M  V30 68 1 92 93
M  V30 69 1 94 95
M  V30 70 1 95 96
M  V30 71 1 97 98
M  V30 72 1 98 99
M  V30 73 1 2 73
M  V30 74 1 3 52
M  V30 75 1 4 88
M  V30 76 1 5 85
M  V30 77 1 7 64
M  V30 78 1 8 91
M  V30 79 1 9 79
M  V30 80 1 10 90
M  V30 81 1 12 97
M  V30 82 1 13 61
M  V30 83 1 14 67
M  V30 84 1 15 58
M  V30 85 1 17 49
M  V30 86 1 18 70
M  V30 87 1 19 60
M  V30 88 1 20 99
M  V30 89 1 22 55
M  V30 90 1 23 46
M  V30 91 1 24 54
M  V30 92 1 25 75
M  V30 93 1 27 57
M  V30 94 1 28 82
M  V30 95 1 29 94
M  V30 96 1 30 87
M  V30 97 1 32 81
M  V30 98 1 33 63
M  V30 99 1 34 84
M  V30 100 1 35 69
M  V30 101 1 37 66
M  V30 102 1 38 76
M  V30 103 1 39 96
M  V30 104 1 40 48
M  V30 105 1 42 78
M  V30 106 1 43 93
M  V30 107 1 44 51
M  V30 108 1 45 72
M  V30 END BOND
M  V30 END CTAB
M  END

$$$$
