
     RDKit          3D

  0  0  0  0  0  0  0  0  0  0999 V3000
M  V30 BEGIN CTAB
M  V30 COUNTS 99 108 0 0 0
M  V30 BEGIN ATOM
M  V30 1 Pd 0.4305 1.5653 -4.2556 0
M  V30 2 Pb 1.2019 1.1509 -4.7381 0
M  V30 3 Pb -0.3209 1.9782 -3.7364 0
M  V30 4 Pb 0.9182 2.4336 -4.1858 0
M  V30 5 Pb 0.0226 0.6560 -4.1900 0
M  V30 6 Pd -7.6597 1.4788 0.0258 0
M  V30 7 Pb -6.8716 1.4380 0.6380 0
M  V30 8 Pb -7.3903 2.4163 -0.2541 0
M  V30 9 Pb -7.8571 0.5139 0.2075 0
M  V30 10 Pb -8.4365 1.5348 -0.5977 0
M  V30 11 Pd 3.7564 -4.1173 3.3258 0
M  V30 12 Pb 3.6631 -4.4936 2.4008 0
M  V30 13 Pb 2.8288 -4.3897 3.5856 0
M  V30 14 Pb 3.8778 -3.6768 4.2137 0
M  V30 15 Pb 4.6858 -3.8639 3.0677 0
M  V30 16 Pd 3.1816 0.9867 4.7042 0
M  V30 17 Pb 3.4934 0.1624 5.1792 0
M  V30 18 Pb 2.8722 1.8268 4.2539 0
M  V30 19 Pb 2.2461 0.7648 4.9838 0
M  V30 20 Pb 4.1211 1.2180 4.4469 0
M  V30 21 Pd -1.5901 -2.1706 3.5065 0
M  V30 22 Pb -2.1865 -1.4028 3.2754 0
M  V30 23 Pb -1.0069 -2.9457 3.7574 0
M  V30 24 Pb -1.0934 -1.5491 4.1176 0
M  V30 25 Pb -2.1479 -2.8024 2.9619 0
M  V30 26 Pd 5.1789 3.8623 0.7236 0
M  V30 27 Pb 4.3862 4.0376 1.3085 0
M  V30 28 Pb 5.9396 3.6172 0.1231 0
M  V30 29 Pb 4.7068 4.2542 -0.0666 0
M  V30 30 Pb 5.6309 3.4165 1.4966 0
M  V30 31 Pd 6.7440 -2.0731 -2.8271 0
M  V30 32 Pb 6.2273 -1.8140 -3.6416 0
M  V30 33 Pb 7.2471 -1.2124 -2.8687 0
M  V30 34 Pb 7.1833 -2.2789 -1.9569 0
M  V30 35 Pb 6.1514 -2.8636 -2.6603 0
M  V30 36 Pd -4.8296 -2.8977 -1.2046 0
M  V30 37 Pb -4.5254 -3.3561 -0.3678 0
M  V30 38 Pb -5.0652 -2.4587 -2.0713 0
M  V30 39 Pb -5.7302 -2.7335 -0.7912 0
M  V30 40 Pb -3.9367 -3.0091 -1.6318 0
M  V30 41 Pd -5.1156 3.4746 -4.2007 0
M  V30 42 Pb -5.4560 4.0277 -3.4318 0
M  V30 43 Pb -4.2363 3.3855 -3.7273 0
M  V30 44 Pb -4.9170 2.6907 -4.7778 0
M  V30 45 Pb -6.0211 3.5192 -4.6172 0
M  V30 46 Ag -6.2744 1.4239 1.0896 0
M  V30 47 Fe -4.4569 0.2746 2.0952 0
M  V30 48 Ag -2.6187 -0.8061 3.1385 0
M  V30 49 Ag 1.7855 0.8104 -5.0632 0
M  V30 50 Fe 3.8075 -0.3892 -4.7328 0
M  V30 51 Ag 5.7987 -1.5691 -4.2047 0
M  V30 52 Ag 5.3647 -3.6938 2.8068 0
M  V30 53 Fe 6.5448 -3.0571 0.8523 0
M  V30 54 Ag 7.4100 -2.4254 -1.2617 0
M  V30 55 Ag -8.8939 1.6620 -1.1690 0
M  V30 56 Fe -8.3560 2.5815 -3.2696 0
M  V30 57 Ag -6.7477 3.4533 -4.7527 0
M  V30 58 Ag 3.6748 -4.7097 1.6794 0
M  V30 59 Fe 4.6111 -4.1775 -0.4416 0
M  V30 60 Ag 5.6903 -3.4057 -2.4160 0
M  V30 61 Ag 1.3122 3.0486 -4.0223 0
M  V30 62 Fe 2.8406 3.8962 -2.4154 0
M  V30 63 Ag 4.3506 4.4921 -0.6826 0
M  V30 64 Ag -0.2102 -0.0465 -4.0725 0
M  V30 65 Fe -1.7217 -1.5778 -3.0722 0
M  V30 66 Ag -3.3055 -3.0045 -2.0304 0
M  V30 67 Ag -5.0940 -2.1406 -2.7509 0
M  V30 68 Fe -4.9874 -0.1615 -4.0560 0
M  V30 69 Ag -4.8981 1.9948 -5.0409 0
M  V30 70 Ag 6.4671 3.3740 -0.3505 0
M  V30 71 Fe 7.1499 1.5048 -1.6435 0
M  V30 72 Ag 7.5442 -0.5299 -2.7991 0
M  V30 73 Ba -2.5753 -3.3162 2.6140 0
M  V30 74 Ga -3.4218 -3.4709 1.4123 0
M  V30 75 Ba -4.2881 -3.7257 0.2420 0
M  V30 76 Ba 1.5586 0.5987 5.2372 0
M  V30 77 Ga 0.4092 -0.2540 4.8685 0
M  V30 78 Ba -0.8020 -1.0608 4.6116 0
M  V30 79 Ba 2.6618 2.4699 3.9253 0
M  V30 80 Ga 3.2120 3.3073 2.8398 0
M  V30 81 Ba 3.7855 4.1237 1.7506 0
M  V30 82 Ba -7.1769 3.1151 -0.4807 0
M  V30 83 Ga -6.4664 3.7272 -1.6415 0
M  V30 84 Ba -5.7554 4.3337 -2.8050 0
M  V30 85 Ba 4.8202 1.4151 4.2555 0
M  V30 86 Ga 5.3980 2.2329 3.1710 0
M  V30 87 Ba 5.9453 3.0558 2.0745 0
M  V30 88 Ba 3.9819 -3.3076 4.8566 0
M  V30 89 Ga 3.8475 -1.8840 5.2183 0
M  V30 90 Ba 3.7052 -0.4544 5.5520 0
M  V30 91 Ba -7.9722 -0.2234 0.2990 0
M  V30 92 Ga -7.1887 -1.4210 -0.0763 0
M  V30 93 Ba -6.3956 -2.6103 -0.4576 0
M  V30 94 Ba -0.8386 2.3170 -3.3086 0
M  V30 95 Ga -2.2344 2.7984 -3.3757 0
M  V30 96 Ba -3.6140 3.3242 -3.3085 0
M  V30 97 Ba 2.1461 -4.6080 3.8101 0
M  V30 98 Ga 0.7803 -4.0477 3.8577 0
M  V30 99 Ba -0.6107 -3.5581 3.9403 0
M  V30 END ATOM
M  V30 BEGIN BOND
M  V30 1 1 1 2
M  V30 2 1 1 3
M  V30 3 1 1 4
M  V30 4 1 1 5
M  V30 5 1 6 7
M  V30 6 1 6 8
M  V30 7 1 6 9
M  V30 8 1 6 10
M  V30 9 1 11 12
M  V30 10 1 11 13
M  V30 11 1 11 14
M  V30 12 1 11 15
M  V30 13 1 16 17
M  V30 14 1 16 18
M  V30 15 1 16 19
M  V30 16 1 16 20
M  V30 17 1 21 22
M  V30 18 1 21 23
M  V30 19 1 21 24
M  V30 20 1 21 25
M  V30 21 1 26 27
M  V30 22 1 26 28
M  V30 23 1 26 29
M  V30 24 1 26 30
M  V30 25 1 31 32
M  V30 26 1 31 33
M  V30 27 1 31 34
M  V30 28 1 31 35
M  V30 29 1 36 37
M  V30 30 1 36 38
M  V30 31 1 36 39
M  V30 32 1 36 40
M  V30 33 1 41 42
M  V30 34 1 41 43
M  V30 35 1 41 44
M  V30 36 1 41 45
M  V30 37 1 46 47
M  V30 38 1 47 48
M  V30 39 1 49 50
M  V30 40 1 50 51
M  V30 41 1 52 53
M  V30 42 1 53 54
M  V30 43 1 55 56
M  V30 44 1 56 57
M  V30 45 1 58 59
M  V30 46 1 59 60
M  V30 47 1 61 62
M  V30 48 1 62 63
M  V30 49 1 64 65
M  V30 50 1 65 66
M  V30 51 1 67 68
M  V30 52 1 68 69
M  V30 53 1 70 71
M  V30 54 1 71 72
M  V30 55 1 73 74
M  V30 56 1 74 75
M  V30 57 1 76 77
M  V30 58 1 77 78
M  V30 59 1 79 80
M  V30 60 1 80 81
M  V30 61 1 82 83
M  V30 62 1 83 84
M  V30 63 1 85 86
M  V30 64 1 86 87
M  V30 65 1 88 89
M  V30 66 1 89 90
M  V30 67 1 91 92
M  V30 68 1 92 93
M  V30 69 1 94 95
M  V30 70 1 95 96
M  V30 71 1 97 98
M  V30 72 1 98 99
M  V30 73 1 2 49
M  V30 74 1 3 94
M  V30 75 1 4 61
M  V30 76 1 5 64
M  V30 77 1 7 46
M  V30 78 1 8 82
M  V30 79 1 9 91
M  V30 80 1 10 55
M  V30 81 1 12 58
M  V30 82 1 13 97
M  V30 83 1 14 88
M  V30 84 1 15 52
M  V30 85 1 17 90
M  V30 86 1 18 79
M  V30 87 1 19 76
M  V30 88 1 20 85
M  V30 89 1 22 48
M  V30 90 1 23 99
M  V30 91 1 24 78
M  V30 92 1 25 73
M  V30 93 1 27 81
M  V30 94 1 28 70
M  V30 95 1 29 63
M  V30 96 1 30 87
M  V30 97 1 32 51
M  V30 98 1 33 72
M  V30 99 1 34 54
M  V30 100 1 35 60
M  V30 101 1 37 75
M  V30 102 1 38 67
M  V30 103 1 39 93
M  V30 104 1 40 66
M  V30 105 1 42 84
M  V30 106 1 43 96
M  V30 107 1 44 69
M  V30 108 1 45 57
M  V30 END BOND
M  V30 END CTAB
M  END

$$$$
