
     RDKit          3D

  0  0  0  0  0  0  0  0  0  0999 V3000
M  V30 BEGIN CTAB
M  V30 COUNTS 99 108 0 0 0
M  V30 BEGIN ATOM
M  V30 1 Pd 2.7523 1.2507 -2.6894 0
M  V30 2 Pb 3.7484 1.2391 -2.5754 0
M  V30 3 Pb 1.7605 1.3315 -2.7942 0
M  V30 4 Pb 2.7501 2.2494 -2.6708 0
M  V30 5 Pb 2.7513 0.2459 -2.6689 0
M  V30 6 Pd -5.3112 -2.7326 -4.9275 0
M  V30 7 Pb -5.4053 -2.8622 -3.9380 0
M  V30 8 Pb -5.2698 -2.5838 -5.9177 0
M  V30 9 Pb -4.6737 -3.5029 -5.0100 0
M  V30 10 Pb -5.8956 -1.9220 -4.8627 0
M  V30 11 Pd 3.4021 -2.3193 5.7293 0
M  V30 12 Pb 3.8565 -2.9448 5.1070 0
M  V30 13 Pb 2.6682 -2.9823 5.8580 0
M  V30 14 Pb 2.9084 -1.7218 6.3617 0
M  V30 15 Pb 4.1007 -1.6087 5.5128 0
M  V30 16 Pd -2.0744 2.7750 6.3247 0
M  V30 17 Pb -1.5876 2.1559 6.9378 0
M  V30 18 Pb -2.4229 3.4024 5.6241 0
M  V30 19 Pb -2.7306 2.0563 6.0844 0
M  V30 20 Pb -1.4113 3.4834 6.5492 0
M  V30 21 Pd -3.2922 -3.8547 2.6747 0
M  V30 22 Pb -3.9385 -3.6517 1.9376 0
M  V30 23 Pb -2.6511 -4.0876 3.4050 0
M  V30 24 Pb -3.7247 -3.1702 3.2639 0
M  V30 25 Pb -2.8046 -4.4759 2.0643 0
M  V30 26 Pd 1.8640 6.8095 2.1407 0
M  V30 27 Pb 0.8615 6.7758 2.1640 0
M  V30 28 Pb 2.8523 6.6729 2.1597 0
M  V30 29 Pb 1.9008 6.7067 1.1486 0
M  V30 30 Pb 1.8348 6.8360 3.1351 0
M  V30 31 Pd 6.2627 0.7966 1.4711 0
M  V30 32 Pb 6.3578 0.9666 0.4888 0
M  V30 33 Pb 6.2166 1.7825 1.6413 0
M  V30 34 Pb 6.1183 0.5979 2.4622 0
M  V30 35 Pb 6.3485 -0.1762 1.2944 0
M  V30 36 Pd 0.1289 -3.7963 -4.0019 0
M  V30 37 Pb -0.0208 -4.3730 -3.2004 0
M  V30 38 Pb 0.2545 -3.2013 -4.7926 0
M  V30 39 Pb -0.6880 -4.2133 -4.4123 0
M  V30 40 Pb 0.9365 -3.3836 -3.5743 0
M  V30 41 Pd -3.8060 1.2680 -6.7458 0
M  V30 42 Pb -4.2029 0.6848 -7.4487 0
M  V30 43 Pb -3.3764 1.6736 -5.9418 0
M  V30 44 Pb -2.8993 1.0525 -7.0942 0
M  V30 45 Pb -4.7074 1.3419 -6.3239 0
M  V30 46 Ag -5.5371 -2.9211 -3.1996 0
M  V30 47 Fe -4.9258 -3.2291 -0.9233 0
M  V30 48 Ag -4.4282 -3.5255 1.3821 0
M  V30 49 Ag -2.4053 -4.8901 1.5861 0
M  V30 50 Fe -1.2695 -4.9196 -0.4971 0
M  V30 51 Ag -0.1793 -4.7928 -2.6011 0
M  V30 52 Ag -3.2109 1.5038 5.9107 0
M  V30 53 Fe -3.6442 -0.5605 4.8139 0
M  V30 54 Ag -4.0119 -2.6251 3.6943 0
M  V30 55 Ag -2.5457 3.9086 5.0793 0
M  V30 56 Fe -1.3568 5.3462 3.6010 0
M  V30 57 Ag 0.1259 6.6517 2.2733 0
M  V30 58 Ag 4.2203 -3.3046 4.5739 0
M  V30 59 Fe 5.4342 -2.5363 2.7102 0
M  V30 60 Ag 6.3575 -0.9149 1.2763 0
M  V30 61 Ag -0.9089 4.0260 6.6429 0
M  V30 62 Fe 0.4971 5.4922 5.4262 0
M  V30 63 Ag 1.7430 6.7711 3.8710 0
M  V30 64 Ag 2.4731 -1.3355 6.8359 0
M  V30 65 Fe 0.6772 0.1837 7.1621 0
M  V30 66 Ag -1.1256 1.7198 7.3338 0
M  V30 67 Ag 2.6894 2.9942 -2.6210 0
M  V30 68 Fe 2.3406 4.8469 -1.1795 0
M  V30 69 Ag 1.9867 6.5646 0.4192 0
M  V30 70 Ag 0.3103 -2.7176 -5.3591 0
M  V30 71 Fe -0.8043 -0.9373 -6.4551 0
M  V30 72 Ag -2.2292 0.7747 -7.2613 0
M  V30 73 Ag 1.0382 1.5258 -2.8666 0
M  V30 74 Fe -0.9967 1.7034 -4.0789 0
M  V30 75 Ag -3.0229 1.8592 -5.3087 0
M  V30 76 Ag 3.5687 6.4573 2.1698 0
M  V30 77 Fe 4.9508 4.5361 1.9725 0
M  V30 78 Ag 6.1956 2.5252 1.7544 0
M  V30 79 Ag 2.0724 -3.4306 5.9084 0
M  V30 80 Fe -0.0548 -3.9107 4.9729 0
M  V30 81 Ag -2.1584 -4.2757 3.9372 0
M  V30 82 Ba 4.4965 1.2558 -2.4947 0
M  V30 83 Ga 5.4503 1.1621 -1.3697 0
M  V30 84 Ba 6.4144 1.0697 -0.2534 0
M  V30 85 Ba 4.6287 -1.0697 5.3620 0
M  V30 86 Ga 5.2875 -0.3407 4.2298 0
M  V30 87 Ba 6.0372 0.4726 3.2182 0
M  V30 88 Ba -6.2837 -1.2790 -4.8471 0
M  V30 89 Ga -5.9110 0.0421 -5.3853 0
M  V30 90 Ba -5.3697 1.2765 -5.9824 0
M  V30 91 Ba -5.2709 -2.4184 -6.6515 0
M  V30 92 Ga -4.9004 -1.1760 -7.3526 0
M  V30 93 Ba -4.4796 0.1368 -7.8725 0
M  V30 94 Ba -4.1841 -4.0671 -5.1083 0
M  V30 95 Ga -2.7370 -4.2876 -4.8870 0
M  V30 96 Ba -1.2961 -4.5643 -4.6891 0
M  V30 97 Ba 2.8239 -0.5036 -2.6142 0
M  V30 98 Ga 2.1367 -1.7678 -2.9593 0
M  V30 99 Ba 1.5506 -3.0954 -3.2485 0
M  V30 END ATOM
M  V30 BEGIN BOND
M  V30 1 1 1 2
M  V30 2 1 1 3
M  V30 3 1 1 4
M  V30 4 1 1 5
M  V30 5 1 6 7
M  V30 6 1 6 8
M  V30 7 1 6 9
M  V30 8 1 6 10
M  V30 9 1 11 12
M  V30 10 1 11 13
M  V30 11 1 11 14
M  V30 12 1 11 15
M  V30 13 1 16 17
M  V30 14 1 16 18
M  V30 15 1 16 19
M  V30 16 1 16 20
M  V30 17 1 21 22
M  V30 18 1 21 23
M  V30 19 1 21 24
M  V30 20 1 21 25
M  V30 21 1 26 27
M  V30 22 1 26 28
M  V30 23 1 26 29
M  V30 24 1 26 30
M  V30 25 1 31 32
M  V30 26 1 31 33
M  V30 27 1 31 34
M  V30 28 1 31 35
M  V30 29 1 36 37
M  V30 30 1 36 38
M  V30 31 1 36 39
M  V30 32 1 36 40
M  V30 33 1 41 42
M  V30 34 1 41 43
M  V30 35 1 41 44
M  V30 36 1 41 45
M  V30 37 1 46 47
M  V30 38 1 47 48
M  V30 39 1 49 50
M  V30 40 1 50 51
M  V30 41 1 52 53
M  V30 42 1 53 54
M  V30 43 1 55 56
M  V30 44 1 56 57
M  V30 45 1 58 59
M  V30 46 1 59 60
M  V30 47 1 61 62
M  V30 48 1 62 63
M  V30 49 1 64 65
M  V30 50 1 65 66
M  V30 51 1 67 68
M  V30 52 1 68 69
M  V30 53 1 70 71
M  V30 54 1 71 72
M  V30 55 1 73 74
M  V30 56 1 74 75
M  V30 57 1 76 77
M  V30 58 1 77 78
M  V30 59 1 79 80
M  V30 60 1 80 81
M  V30 61 1 82 83
M  V30 62 1 83 84
M  V30 63 1 85 86
M  V30 64 1 86 87
M  V30 65 1 88 89
M  V30 66 1 89 90
M  V30 67 1 91 92
M  V30 68 1 92 93
M  V30 69 1 94 95
M  V30 70 1 95 96
M  V30 71 1 97 98
M  V30 72 1 98 99
M  V30 73 1 2 82
M  V30 74 1 3 73
M  V30 75 1 4 67
M  V30 76 1 5 97
M  V30 77 1 7 46
M  V30 78 1 8 91
M  V30 79 1 9 94
M  V30 80 1 10 88
M  V30 81 1 12 58
M  V30 82 1 13 79
M  V30 83 1 14 64
M  V30 84 1 15 85
M  V30 85 1 17 66
M  V30 86 1 18 55
M  V30 87 1 19 52
M  V30 88 1 20 61
M  V30 89 1 22 48
M  V30 90 1 23 81
M  V30 91 1 24 54
M  V30 92 1 25 49
M  V30 93 1 27 57
M  V30 94 1 28 76
M  V30 95 1 29 69
M  V30 96 1 30 63
M  V30 97 1 32 84
M  V30 98 1 33 78
M  V30 99 1 34 87
M  V30 100 1 35 60
M  V30 101 1 37 51
M  V30 102 1 38 70
M  V30 103 1 39 96
M  V30 104 1 40 99
M  V30 105 1 42 93
M  V30 106 1 43 75
M  V30 107 1 44 72
M  V30 108 1 45 90
M  V30 END BOND
M  V30 END CTAB
M  END

$$$$
