
     RDKit          3D

  0  0  0  0  0  0  0  0  0  0999 V3000
M  V30 BEGIN CTAB
M  V30 COUNTS 99 108 0 0 0
M  V30 BEGIN ATOM
M  V30 1 Pd -3.1257 -4.1366 2.9133 0
M  V30 2 Pb -2.2249 -3.8820 2.5663 0
M  V30 3 Pb -2.9808 -5.0749 2.6020 0
M  V30 4 Pb -4.0041 -4.4315 3.2963 0
M  V30 5 Pb -3.2972 -3.1781 3.1482 0
M  V30 6 Pd -6.6123 -6.6557 0.5611 0
M  V30 7 Pb -7.5143 -6.2517 0.4463 0
M  V30 8 Pb -6.6985 -6.5628 1.5503 0
M  V30 9 Pb -5.6927 -7.0215 0.6991 0
M  V30 10 Pb -6.4517 -6.5602 -0.4349 0
M  V30 11 Pd 3.9941 2.3317 -4.0935 0
M  V30 12 Pb 4.9213 2.6559 -3.8951 0
M  V30 13 Pb 3.0547 2.0126 -4.1864 0
M  V30 14 Pb 3.6527 3.2284 -3.8248 0
M  V30 15 Pb 4.2953 1.4299 -4.4061 0
M  V30 16 Pd 2.4585 6.9027 1.6899 0
M  V30 17 Pb 1.5153 6.5749 1.7825 0
M  V30 18 Pb 3.4399 7.0768 1.6042 0
M  V30 19 Pb 2.5426 6.8716 2.6804 0
M  V30 20 Pb 2.3851 6.8860 0.6975 0
M  V30 21 Pd 2.4875 -2.3744 -2.4751 0
M  V30 22 Pb 3.3262 -2.1732 -1.9769 0
M  V30 23 Pb 1.6373 -2.5515 -2.9737 0
M  V30 24 Pb 2.9810 -2.1297 -3.3104 0
M  V30 25 Pb 2.0434 -2.5795 -1.6041 0
M  V30 26 Pd -5.3957 -2.4313 -2.9884 0
M  V30 27 Pb -6.3521 -2.3129 -2.7411 0
M  V30 28 Pb -5.2578 -1.4546 -2.8268 0
M  V30 29 Pb -5.5453 -3.4352 -3.0194 0
M  V30 30 Pb -4.4479 -2.5539 -3.2916 0
M  V30 31 Pd 6.2870 3.3585 0.6282 0
M  V30 32 Pb 6.3210 2.3824 0.4302 0
M  V30 33 Pb 6.0597 3.1092 1.5744 0
M  V30 34 Pb 6.5354 3.5397 -0.3290 0
M  V30 35 Pb 6.2560 4.3431 0.8297 0
M  V30 36 Pd -2.0151 0.2827 0.1791 0
M  V30 37 Pb -1.1340 0.0817 0.6123 0
M  V30 38 Pb -1.5655 0.4149 -0.7031 0
M  V30 39 Pb -2.4815 0.1228 1.0531 0
M  V30 40 Pb -2.8687 0.5075 -0.2921 0
M  V30 41 Pd 1.8584 2.6779 3.5651 0
M  V30 42 Pb 2.0405 3.4732 4.1390 0
M  V30 43 Pb 1.0081 3.1178 3.2738 0
M  V30 44 Pb 2.7868 2.3668 3.7638 0
M  V30 45 Pb 1.6731 1.8556 3.0210 0
M  V30 46 Ag 3.3858 3.8958 -3.6238 0
M  V30 47 Fe 2.8489 5.4129 -1.8844 0
M  V30 48 Ag 2.3629 6.8252 -0.0446 0
M  V30 49 Ag 0.9946 -2.6770 -3.3422 0
M  V30 50 Fe -1.3816 -2.6579 -3.4139 0
M  V30 51 Ag -3.7544 -2.6668 -3.5614 0
M  V30 52 Ag -8.0928 -5.8228 0.2763 0
M  V30 53 Fe -8.1138 -3.9101 -1.0940 0
M  V30 54 Ag -7.0527 -2.3516 -2.5029 0
M  V30 55 Ag 3.9502 -1.9815 -1.6160 0
M  V30 56 Fe 5.1913 -0.2112 -0.6445 0
M  V30 57 Ag 6.3250 1.6495 0.2889 0
M  V30 58 Ag -1.5340 -3.7096 2.3360 0
M  V30 59 Fe 0.0636 -3.2128 0.6523 0
M  V30 60 Ag 1.7686 -2.7035 -0.9185 0
M  V30 61 Ag 2.3506 1.7646 -4.1850 0
M  V30 62 Fe 0.5212 1.1305 -2.8139 0
M  V30 63 Ag -1.2674 0.5108 -1.3837 0
M  V30 64 Ba -0.4627 -0.0748 0.9136 0
M  V30 65 Ga 0.5257 0.6013 1.7807 0
M  V30 66 Ba 1.5592 1.2146 2.6421 0
M  V30 67 Ba -6.3194 -6.4449 -1.1787 0
M  V30 68 Ga -5.9930 -5.2942 -2.0750 0
M  V30 69 Ba -5.6655 -4.1913 -3.0289 0
M  V30 70 Ba -2.9245 -5.7684 2.3248 0
M  V30 71 Ga -3.9166 -6.5646 1.5814 0
M  V30 72 Ba -4.9967 -7.2524 0.8525 0
M  V30 73 Ba 5.9130 2.8362 2.2630 0
M  V30 74 Ga 4.7176 2.5303 3.0784 0
M  V30 75 Ba 3.5146 2.2330 3.8858 0
M  V30 76 Ba 2.5831 6.7567 3.4142 0
M  V30 77 Ga 2.3986 5.4617 4.0772 0
M  V30 78 Ba 2.1831 4.0869 4.5406 0
M  V30 79 Ba -4.6416 -4.7164 3.5776 0
M  V30 80 Ga -5.7016 -5.5556 2.9856 0
M  V30 81 Ba -6.6957 -6.3840 2.2764 0
M  V30 82 Ba -3.4189 -2.4475 3.2781 0
M  V30 83 Ga -3.1233 -1.2214 2.5057 0
M  V30 84 Ba -2.8173 -0.0097 1.7146 0
M  V30 85 Ba 5.5837 2.9486 -3.6900 0
M  V30 86 Ga 6.1708 3.2874 -2.3731 0
M  V30 87 Ba 6.7458 3.6226 -1.0500 0
M  V30 88 Ba -5.1950 -0.7347 -2.6259 0
M  V30 89 Ga -4.3303 -0.0119 -1.6728 0
M  V30 90 Ba -3.4589 0.6980 -0.7159 0
M  V30 91 Ba 4.4386 0.7414 -4.6704 0
M  V30 92 Ga 3.9433 -0.5996 -4.2989 0
M  V30 93 Ba 3.4174 -1.9156 -3.8829 0
M  V30 94 Ba 0.8471 6.2411 1.8802 0
M  V30 95 Ga 0.5563 4.9046 2.4435 0
M  V30 96 Ba 0.4448 3.5511 3.0295 0
M  V30 97 Ba 4.1858 7.1316 1.5368 0
M  V30 98 Ga 5.2240 6.1162 1.2529 0
M  V30 99 Ba 6.2473 5.0858 0.9683 0
M  V30 END ATOM
M  V30 BEGIN BOND
M  V30 1 1 1 2
M  V30 2 1 1 3
M  V30 3 1 1 4
M  V30 4 1 1 5
M  V30 5 1 6 7
M  V30 6 1 6 8
M  V30 7 1 6 9
M  V30 8 1 6 10
M  V30 9 1 11 12
M  V30 10 1 11 13
M  V30 11 1 11 14
M  V30 12 1 11 15
M  V30 13 1 16 17
M  V30 14 1 16 18
M  V30 15 1 16 19
M  V30 16 1 16 20
M  V30 17 1 21 22
M  V30 18 1 21 23
M  V30 19 1 21 24
M  V30 20 1 21 25
M  V30 21 1 26 27
M  V30 22 1 26 28
M  V30 23 1 26 29
M  V30 24 1 26 30
M  V30 25 1 31 32
M  V30 26 1 31 33
M  V30 27 1 31 34
M  V30 28 1 31 35
M  V30 29 1 36 37
M  V30 30 1 36 38
M  V30 31 1 36 39
M  V30 32 1 36 40
M  V30 33 1 41 42
M  V30 34 1 41 43
M  V30 35 1 41 44
M  V30 36 1 41 45
M  V30 37 1 46 47
M  V30 38 1 47 48
M  V30 39 1 49 50
M  V30 40 1 50 51
M  V30 41 1 52 53
M  V30 42 1 53 54
M  V30 43 1 55 56
M  V30 44 1 56 57
M  V30 45 1 58 59
M  V30 46 1 59 60
M  V30 47 1 61 62
M  V30 48 1 62 63
M  V30 49 1 64 65
M  V30 50 1 65 66
M  V30 51 1 67 68
M  V30 52 1 68 69
M  V30 53 1 70 71
M  V30 54 1 71 72
M  V30 55 1 73 74
M  V30 56 1 74 75
M  V30 57 1 76 77
M  V30 58 1 77 78
M  V30 59 1 79 80
M  V30 60 1 80 81
M  V30 61 1 82 83
M  V30 62 1 83 84
M  V30 63 1 85 86
M  V30 64 1 86 87
M  V30 65 1 88 89
M  V30 66 1 89 90
M  V30 67 1 91 92
M  V30 68 1 92 93
M  V30 69 1 94 95
M  V30 70 1 95 96
M  V30 71 1 97 98
M  V30 72 1 98 99
M  V30 73 1 2 58
M  V30 74 1 3 70
M  V30 75 1 4 79
M  V30 76 1 5 82
M  V30 77 1 7 52
M  V30 78 1 8 81
M  V30 79 1 9 72
M  V30 80 1 10 67
M  V30 81 1 12 85
M  V30 82 1 13 61
M  V30 83 1 14 46
M  V30 84 1 15 91
M  V30 85 1 17 94
M  V30 86 1 18 97
M  V30 87 1 19 76
M  V30 88 1 20 48
M  V30 89 1 22 55
M  V30 90 1 23 49
M  V30 91 1 24 93
M  V30 92 1 25 60
M  V30 93 1 27 54
M  V30 94 1 28 88
M  V30 95 1 29 69
M  V30 96 1 30 51
M  V30 97 1 32 57
M  V30 98 1 33 73
M  V30 99 1 34 87
M  V30 100 1 35 99
M  V30 101 1 37 64
M  V30 102 1 38 63
M  V30 103 1 39 84
M  V30 104 1 40 90
M  V30 105 1 42 78
M  V30 106 1 43 96
M  V30 107 1 44 75
M  V30 108 1 45 66
M  V30 END BOND
M  V30 END CTAB
M  END

$$$$
