
     RDKit          3D

  0  0  0  0  0  0  0  0  0  0999 V3000
M  V30 BEGIN CTAB
M  V30 COUNTS 99 108 0 0 0
M  V30 BEGIN ATOM
M  V30 1 Pd 4.8773 0.6334 -1.8915 0
M  V30 2 Pb 5.2600 0.7851 -0.9730 0
M  V30 3 Pb 5.1193 -0.3328 -1.8105 0
M  V30 4 Pb 4.6689 1.6012 -2.0398 0
M  V30 5 Pb 4.5358 0.4686 -2.8196 0
M  V30 6 Pd -2.7634 -6.6236 -0.9369 0
M  V30 7 Pb -2.7701 -5.8830 -0.2648 0
M  V30 8 Pb -2.6146 -7.2964 -1.6566 0
M  V30 9 Pb -3.2161 -6.0601 -1.6202 0
M  V30 10 Pb -2.0867 -7.1147 -0.3909 0
M  V30 11 Pd -2.4577 1.7335 6.2605 0
M  V30 12 Pb -1.8303 2.5072 6.3106 0
M  V30 13 Pb -3.0725 0.9559 6.1577 0
M  V30 14 Pb -3.2647 2.3243 6.2133 0
M  V30 15 Pb -1.6448 1.1492 6.1877 0
M  V30 16 Pd -4.7243 4.1543 2.0566 0
M  V30 17 Pb -4.9986 3.9939 3.0090 0
M  V30 18 Pb -4.1351 4.9064 2.3529 0
M  V30 19 Pb -5.3185 3.4271 1.7024 0
M  V30 20 Pb -4.4196 4.3557 1.1254 0
M  V30 21 Pd -4.5124 -1.2062 0.4354 0
M  V30 22 Pb -3.8865 -1.9732 0.5824 0
M  V30 23 Pb -4.9236 -1.4541 1.3070 0
M  V30 24 Pb -5.1454 -0.4313 0.3757 0
M  V30 25 Pb -4.0051 -0.8814 -0.3664 0
M  V30 26 Pd 1.1824 7.2473 -0.6676 0
M  V30 27 Pb 0.6081 7.5310 0.0989 0
M  V30 28 Pb 2.0180 7.4293 -0.1569 0
M  V30 29 Pb 1.7626 6.8298 -1.3627 0
M  V30 30 Pb 0.3463 6.9447 -1.1234 0
M  V30 31 Pd 4.2119 2.6504 3.5397 0
M  V30 32 Pb 4.8275 2.1312 2.9408 0
M  V30 33 Pb 4.5835 3.5100 3.1973 0
M  V30 34 Pb 3.7620 1.8303 3.8998 0
M  V30 35 Pb 3.5792 3.1757 4.1068 0
M  V30 36 Pd 0.8414 -2.0195 -5.0602 0
M  V30 37 Pb 0.2861 -1.3323 -4.5916 0
M  V30 38 Pb 1.3826 -2.7286 -5.5235 0
M  V30 39 Pb 0.0055 -2.5686 -5.0426 0
M  V30 40 Pb 1.6449 -1.4207 -5.0881 0
M  V30 41 Pd 3.2327 -6.6490 -3.6811 0
M  V30 42 Pb 2.5056 -7.2288 -4.0423 0
M  V30 43 Pb 3.9101 -6.0393 -3.2729 0
M  V30 44 Pb 3.2697 -6.1408 -4.5427 0
M  V30 45 Pb 3.0689 -7.0861 -2.7949 0
M  V30 46 Ag -3.5876 -0.5838 -0.9180 0
M  V30 47 Fe -1.8946 -0.7155 -2.5818 0
M  V30 48 Ag -0.2005 -0.8805 -4.2414 0
M  V30 49 Ag -3.6770 5.4839 2.4920 0
M  V30 50 Fe -1.7745 6.6600 1.6944 0
M  V30 51 Ag 0.1379 7.6291 0.6737 0
M  V30 52 Ag -1.0061 0.7671 6.0668 0
M  V30 53 Fe 1.1931 0.9058 5.1686 0
M  V30 54 Ag 3.3388 1.2939 4.2161 0
M  V30 55 Ag -1.4529 -7.4212 -0.1353 0
M  V30 56 Fe 0.7806 -7.5413 -0.9342 0
M  V30 57 Ag 2.8145 -7.3776 -2.1506 0
M  V30 58 Ag -2.3597 -7.7158 -2.2175 0
M  V30 59 Fe -0.3145 -7.8866 -3.3999 0
M  V30 60 Ag 1.8990 -7.6327 -4.2044 0
M  V30 61 Ag -1.2906 3.0240 6.2999 0
M  V30 62 Fe 0.8968 3.4104 5.4669 0
M  V30 63 Ag 3.0679 3.5357 4.5187 0
M  V30 64 Ag -4.1384 4.5613 0.4609 0
M  V30 65 Fe -2.2806 5.5996 -0.5927 0
M  V30 66 Ag -0.3038 6.6633 -1.3674 0
M  V30 67 Ag -3.3655 -5.6462 -2.2219 0
M  V30 68 Fe -2.1452 -4.2328 -3.6864 0
M  V30 69 Ag -0.6722 -2.8840 -4.9691 0
M  V30 70 Ag 4.5064 2.3048 -2.2481 0
M  V30 71 Fe 3.3804 4.3859 -2.0458 0
M  V30 72 Ag 2.2382 6.4534 -1.7995 0
M  V30 73 Ag 5.3185 -1.0547 -1.7829 0
M  V30 74 Fe 4.8777 -3.3177 -2.3484 0
M  V30 75 Ag 4.3829 -5.5623 -2.9419 0
M  V30 76 Ag 2.6566 7.4244 0.2277 0
M  V30 77 Fe 3.8819 5.9459 1.6160 0
M  V30 78 Ag 4.7597 4.1893 2.9422 0
M  V30 79 Ag -3.5532 0.4092 5.9954 0
M  V30 80 Fe -4.4840 -0.7278 4.1385 0
M  V30 81 Ag -5.1129 -1.5706 2.0172 0
M  V30 82 Ba -2.6732 -5.3269 0.2298 0
M  V30 83 Ga -3.1025 -3.9335 0.4615 0
M  V30 84 Ba -3.4470 -2.5400 0.8064 0
M  V30 85 Ba 5.6019 0.8308 -0.2999 0
M  V30 86 Ga 5.3981 1.3221 1.0825 0
M  V30 87 Ba 5.3124 1.7680 2.4927 0
M  V30 88 Ba -5.7688 2.9174 1.3772 0
M  V30 89 Ga -5.6794 1.5233 0.8902 0
M  V30 90 Ba -5.6436 0.1328 0.3865 0
M  V30 91 Ba -3.8938 2.7250 6.1197 0
M  V30 92 Ga -4.5405 3.3276 4.9334 0
M  V30 93 Ba -5.1769 3.9244 3.7386 0
M  V30 94 Ba 4.3131 0.3759 -3.5323 0
M  V30 95 Ga 3.2571 -0.3196 -4.2975 0
M  V30 96 Ba 2.2459 -0.9731 -5.1548 0
M  V30 97 Ba 1.8190 -3.2334 -5.8774 0
M  V30 98 Ga 2.5274 -4.4848 -5.5279 0
M  V30 99 Ba 3.2335 -5.7367 -5.1752 0
M  V30 END ATOM
M  V30 BEGIN BOND
M  V30 1 1 1 2
M  V30 2 1 1 3
M  V30 3 1 1 4
M  V30 4 1 1 5
M  V30 5 1 6 7
M  V30 6 1 6 8
M  V30 7 1 6 9
M  V30 8 1 6 10
M  V30 9 1 11 12
M  V30 10 1 11 13
M  V30 11 1 11 14
M  V30 12 1 11 15
M  V30 13 1 16 17
M  V30 14 1 16 18
M  V30 15 1 16 19
M  V30 16 1 16 20
M  V30 17 1 21 22
M  V30 18 1 21 23
M  V30 19 1 21 24
M  V30 20 1 21 25
M  V30 21 1 26 27
M  V30 22 1 26 28
M  V30 23 1 26 29
M  V30 24 1 26 30
M  V30 25 1 31 32
M  V30 26 1 31 33
M  V30 27 1 31 34
M  V30 28 1 31 35
M  V30 29 1 36 37
M  V30 30 1 36 38
M  V30 31 1 36 39
M  V30 32 1 36 40
M  V30 33 1 41 42
M  V30 34 1 41 43
M  V30 35 1 41 44
M  V30 36 1 41 45
M  V30 37 1 46 47
M  V30 38 1 47 48
M  V30 39 1 49 50
M  V30 40 1 50 51
M  V30 41 1 52 53
M  V30 42 1 53 54
M  V30 43 1 55 56
M  V30 44 1 56 57
M  V30 45 1 58 59
M  V30 46 1 59 60
M  V30 47 1 61 62
M  V30 48 1 62 63
M  V30 49 1 64 65
M  V30 50 1 65 66
M  V30 51 1 67 68
M  V30 52 1 68 69
M  V30 53 1 70 71
M  V30 54 1 71 72
M  V30 55 1 73 74
M  V30 56 1 74 75
M  V30 57 1 76 77
M  V30 58 1 77 78
M  V30 59 1 79 80
M  V30 60 1 80 81
M  V30 61 1 82 83
M  V30 62 1 83 84
M  V30 63 1 85 86
M  V30 64 1 86 87
M  V30 65 1 88 89
M  V30 66 1 89 90
M  V30 67 1 91 92
M  V30 68 1 92 93
M  V30 69 1 94 95
M  V30 70 1 95 96
M  V30 71 1 97 98
M  V30 72 1 98 99
M  V30 73 1 2 85
M  V30 74 1 3 73
M  V30 75 1 4 70
M  V30 76 1 5 94
M  V30 77 1 7 82
M  V30 78 1 8 58
M  V30 79 1 9 67
M  V30 80 1 10 55
M  V30 81 1 12 61
M  V30 82 1 13 79
M  V30 83 1 14 91
M  V30 84 1 15 52
M  V30 85 1 17 93
M  V30 86 1 18 49
M  V30 87 1 19 88
M  V30 88 1 20 64
M  V30 89 1 22 84
M  V30 90 1 23 81
M  V30 91 1 24 90
M  V30 92 1 25 46
M  V30 93 1 27 51
M  V30 94 1 28 76
M  V30 95 1 29 72
M  V30 96 1 30 66
M  V30 97 1 32 87
M  V30 98 1 33 78
M  V30 99 1 34 54
M  V30 100 1 35 63
M  V30 101 1 37 48
M  V30 102 1 38 97
M  V30 103 1 39 69
M  V30 104 1 40 96
M  V30 105 1 42 60
M  V30 106 1 43 75
M  V30 107 1 44 99
M  V30 108 1 45 57
M  V30 END BOND
M  V30 END CTAB
M  END

$$$$
