
     RDKit          3D

  0  0  0  0  0  0  0  0  0  0999 V3000
M  V30 BEGIN CTAB
M  V30 COUNTS 99 108 0 0 0
M  V30 BEGIN ATOM
M  V30 1 Pd -0.9206 4.9031 0.1452 0
M  V30 2 Pb -0.9290 5.1918 1.0995 0
M  V30 3 Pb -0.9394 4.5508 -0.7938 0
M  V30 4 Pb -1.9057 5.0670 0.0995 0
M  V30 5 Pb 0.0427 4.6684 0.2695 0
M  V30 6 Pd 3.5612 0.1043 -6.3006 0
M  V30 7 Pb 3.0246 -0.5181 -5.7279 0
M  V30 8 Pb 2.7007 0.5357 -6.6286 0
M  V30 9 Pb 4.4248 -0.2021 -5.8977 0
M  V30 10 Pb 4.0776 0.7051 -6.9044 0
M  V30 11 Pd -0.3377 -4.5042 4.6821 0
M  V30 12 Pb 0.4429 -3.9379 4.9074 0
M  V30 13 Pb 0.2787 -5.1407 4.2142 0
M  V30 14 Pb -1.0874 -5.1373 4.4825 0
M  V30 15 Pb -0.9643 -3.8240 5.1300 0
M  V30 16 Pd -3.7025 -5.0064 0.7601 0
M  V30 17 Pb -3.5414 -5.6978 1.4589 0
M  V30 18 Pb -3.8339 -4.2274 0.1391 0
M  V30 19 Pb -3.1170 -5.4940 0.1142 0
M  V30 20 Pb -4.2605 -4.5222 1.4212 0
M  V30 21 Pd 1.6320 -4.9171 -0.3841 0
M  V30 22 Pb 1.5220 -4.3783 -1.2209 0
M  V30 23 Pb 1.7234 -5.4449 0.4632 0
M  V30 24 Pb 0.8284 -5.4505 -0.6499 0
M  V30 25 Pb 2.4521 -4.3954 -0.1524 0
M  V30 26 Pd -5.1263 1.9958 1.9925 0
M  V30 27 Pb -4.9858 1.4912 1.1354 0
M  V30 28 Pb -5.2244 2.3886 2.9054 0
M  V30 29 Pb -4.9611 2.8808 1.5482 0
M  V30 30 Pb -5.3393 1.1258 2.4185 0
M  V30 31 Pd -1.9556 1.2142 6.1413 0
M  V30 32 Pb -1.7459 2.1805 6.0163 0
M  V30 33 Pb -2.9175 1.4748 6.0219 0
M  V30 34 Pb -2.1390 0.2057 6.1789 0
M  V30 35 Pb -0.9881 1.0389 6.2586 0
M  V30 36 Pd 5.6941 1.4393 -1.6568 0
M  V30 37 Pb 5.6822 0.5609 -1.1813 0
M  V30 38 Pb 5.6399 2.3431 -2.0813 0
M  V30 39 Pb 6.0674 0.9750 -2.4642 0
M  V30 40 Pb 5.2505 1.8884 -0.8864 0
M  V30 41 Pd 1.0366 4.8531 -5.4813 0
M  V30 42 Pb 0.7327 4.0889 -6.0669 0
M  V30 43 Pb 0.4227 4.5274 -4.7581 0
M  V30 44 Pb 1.5857 5.3965 -4.8554 0
M  V30 45 Pb 1.6542 5.1501 -6.2045 0
M  V30 46 Ag 2.5797 -0.9831 -5.3394 0
M  V30 47 Fe 2.0639 -2.4740 -3.5620 0
M  V30 48 Ag 1.4031 -3.9811 -1.8473 0
M  V30 49 Ag -0.9413 5.3270 1.8337 0
M  V30 50 Fe -1.2450 4.2593 3.9278 0
M  V30 51 Ag -1.5979 2.8873 5.8279 0
M  V30 52 Ag 3.0741 -4.0047 -0.0047 0
M  V30 53 Fe 4.3841 -2.0623 -0.3868 0
M  V30 54 Ag 5.6371 -0.0931 -0.8194 0
M  V30 55 Ag -3.9443 -3.5815 -0.2371 0
M  V30 56 Fe -4.4053 -1.2604 0.0348 0
M  V30 57 Ag -4.8684 1.0164 0.5598 0
M  V30 58 Ag 4.3486 1.2571 -7.3186 0
M  V30 59 Fe 3.6321 3.4950 -7.4387 0
M  V30 60 Ag 2.1846 5.2039 -6.7188 0
M  V30 61 Ag 0.9506 -3.4446 5.1127 0
M  V30 62 Fe 0.8038 -1.2006 5.7964 0
M  V30 63 Ag -0.2839 0.8232 6.2928 0
M  V30 64 Ag -4.6441 -4.1079 1.9007 0
M  V30 65 Fe -5.1640 -1.8644 2.4309 0
M  V30 66 Ag -5.4985 0.4594 2.7017 0
M  V30 67 Ag 0.7411 4.4675 0.4535 0
M  V30 68 Fe 2.8120 3.3776 0.0604 0
M  V30 69 Ag 4.8696 2.2798 -0.3778 0
M  V30 70 Ag 5.4887 3.0528 -2.2755 0
M  V30 71 Fe 3.9207 4.5137 -3.2966 0
M  V30 72 Ag 2.1635 5.6231 -4.4426 0
M  V30 73 Ba -2.6645 -5.8743 -0.3456 0
M  V30 74 Ga -1.2145 -5.8555 -0.6132 0
M  V30 75 Ba 0.2345 -5.8437 -0.8863 0
M  V30 76 Ba -1.4662 -3.3477 5.4829 0
M  V30 77 Ga -1.7970 -1.9139 5.8011 0
M  V30 78 Ba -2.2910 -0.5537 6.2165 0
M  V30 79 Ba 2.0559 0.8775 -6.8653 0
M  V30 80 Ga 1.3358 2.1722 -6.6626 0
M  V30 81 Ba 0.5980 3.4594 -6.4750 0
M  V30 82 Ba -1.5969 -5.6655 4.3197 0
M  V30 83 Ga -2.5148 -5.9300 3.1971 0
M  V30 84 Ba -3.4154 -6.1373 2.0489 0
M  V30 85 Ba 5.0913 -0.3472 -5.5819 0
M  V30 86 Ga 5.7166 0.1007 -4.3186 0
M  V30 87 Ba 6.3136 0.5668 -3.0481 0
M  V30 88 Ba -2.6500 5.1592 0.1091 0
M  V30 89 Ga -3.7591 4.3469 0.6517 0
M  V30 90 Ba -4.8728 3.5400 1.1929 0
M  V30 91 Ba -1.0204 4.2426 -1.4759 0
M  V30 92 Ga -0.4833 4.2981 -2.8522 0
M  V30 93 Ba -0.0640 4.2277 -4.2682 0
M  V30 94 Ba -5.2953 2.5474 3.6351 0
M  V30 95 Ga -4.4563 2.1797 4.7964 0
M  V30 96 Ba -3.5968 1.7924 5.9363 0
M  V30 97 Ba 0.7371 -5.6151 3.8533 0
M  V30 98 Ga 1.2627 -5.7218 2.4760 0
M  V30 99 Ba 1.7935 -5.8371 1.1014 0
M  V30 END ATOM
M  V30 BEGIN BOND
M  V30 1 1 1 2
M  V30 2 1 1 3
M  V30 3 1 1 4
M  V30 4 1 1 5
M  V30 5 1 6 7
M  V30 6 1 6 8
M  V30 7 1 6 9
M  V30 8 1 6 10
M  V30 9 1 11 12
M  V30 10 1 11 13
M  V30 11 1 11 14
M  V30 12 1 11 15
M  V30 13 1 16 17
M  V30 14 1 16 18
M  V30 15 1 16 19
M  V30 16 1 16 20
M  V30 17 1 21 22
M  V30 18 1 21 23
M  V30 19 1 21 24
M  V30 20 1 21 25
M  V30 21 1 26 27
M  V30 22 1 26 28
M  V30 23 1 26 29
M  V30 24 1 26 30
M  V30 25 1 31 32
M  V30 26 1 31 33
M  V30 27 1 31 34
M  V30 28 1 31 35
M  V30 29 1 36 37
M  V30 30 1 36 38
M  V30 31 1 36 39
M  V30 32 1 36 40
M  V30 33 1 41 42
M  V30 34 1 41 43
M  V30 35 1 41 44
M  V30 36 1 41 45
M  V30 37 1 46 47
M  V30 38 1 47 48
M  V30 39 1 49 50
M  V30 40 1 50 51
M  V30 41 1 52 53
M  V30 42 1 53 54
M  V30 43 1 55 56
M  V30 44 1 56 57
M  V30 45 1 58 59
M  V30 46 1 59 60
M  V30 47 1 61 62
M  V30 48 1 62 63
M  V30 49 1 64 65
M  V30 50 1 65 66
M  V30 51 1 67 68
M  V30 52 1 68 69
M  V30 53 1 70 71
M  V30 54 1 71 72
M  V30 55 1 73 74
M  V30 56 1 74 75
M  V30 57 1 76 77
M  V30 58 1 77 78
M  V30 59 1 79 80
M  V30 60 1 80 81
M  V30 61 1 82 83
M  V30 62 1 83 84
M  V30 63 1 85 86
M  V30 64 1 86 87
M  V30 65 1 88 89
M  V30 66 1 89 90
M  V30 67 1 91 92
M  V30 68 1 92 93
M  V30 69 1 94 95
M  V30 70 1 95 96
M  V30 71 1 97 98
M  V30 72 1 98 99
M  V30 73 1 2 49
M  V30 74 1 3 91
M  V30 75 1 4 88
M  V30 76 1 5 67
M  V30 77 1 7 46
M  V30 78 1 8 79
M  V30 79 1 9 85
M  V30 80 1 10 58
M  V30 81 1 12 61
M  V30 82 1 13 97
M  V30 83 1 14 82
M  V30 84 1 15 76
M  V30 85 1 17 84
M  V30 86 1 18 55
M  V30 87 1 19 73
M  V30 88 1 20 64
M  V30 89 1 22 48
M  V30 90 1 23 99
M  V30 91 1 24 75
M  V30 92 1 25 52
M  V30 93 1 27 57
M  V30 94 1 28 94
M  V30 95 1 29 90
M  V30 96 1 30 66
M  V30 97 1 32 51
M  V30 98 1 33 96
M  V30 99 1 34 78
M  V30 100 1 35 63
M  V30 101 1 37 54
M  V30 102 1 38 70
M  V30 103 1 39 87
M  V30 104 1 40 69
M  V30 105 1 42 81
M  V30 106 1 43 93
M  V30 107 1 44 72
M  V30 108 1 45 60
M  V30 END BOND
M  V30 END CTAB
M  END

$$$$
