
     RDKit          3D

  0  0  0  0  0  0  0  0  0  0999 V3000
M  V30 BEGIN CTAB
M  V30 COUNTS 99 108 0 0 0
M  V30 BEGIN ATOM
M  V30 1 Pd 3.8704 -8.4387 -0.9870 0
M  V30 2 Pb 4.0513 -7.7051 -1.6423 0
M  V30 3 Pb 3.7360 -9.2210 -0.3832 0
M  V30 4 Pb 4.4004 -7.9680 -0.2597 0
M  V30 5 Pb 3.0226 -8.6747 -1.4618 0
M  V30 6 Pd -4.3660 0.7642 2.5026 0
M  V30 7 Pb -4.7987 0.7224 1.5808 0
M  V30 8 Pb -4.3432 1.7683 2.4755 0
M  V30 9 Pb -4.5016 -0.2138 2.5984 0
M  V30 10 Pb -3.9058 0.7430 3.3922 0
M  V30 11 Pd 1.4910 -5.7823 2.6329 0
M  V30 12 Pb 0.5825 -5.9455 2.2483 0
M  V30 13 Pb 1.5125 -4.8580 2.2497 0
M  V30 14 Pb 2.5042 -5.8509 2.6252 0
M  V30 15 Pb 1.4371 -6.6630 3.0972 0
M  V30 16 Pd 3.0328 6.5183 3.3311 0
M  V30 17 Pb 3.3496 6.4389 2.3838 0
M  V30 18 Pb 3.3783 5.5920 3.5597 0
M  V30 19 Pb 2.7329 6.6300 4.2717 0
M  V30 20 Pb 2.4697 7.3004 3.0801 0
M  V30 21 Pd 1.4895 4.6221 -3.8787 0
M  V30 22 Pb 2.1257 3.9255 -4.2062 0
M  V30 23 Pb 0.8292 5.3164 -3.5611 0
M  V30 24 Pb 2.2162 5.0545 -3.3458 0
M  V30 25 Pb 0.7242 4.1359 -4.2925 0
M  V30 26 Pd -2.9564 5.7098 -0.2687 0
M  V30 27 Pb -2.5597 6.4321 0.2980 0
M  V30 28 Pb -3.4474 5.3245 0.5155 0
M  V30 29 Pb -3.3021 5.0089 -0.8875 0
M  V30 30 Pb -2.4075 6.0770 -1.0317 0
M  V30 31 Pd 0.7413 1.4526 4.7964 0
M  V30 32 Pb 0.6338 2.0377 5.5922 0
M  V30 33 Pb 1.6238 1.9192 4.5856 0
M  V30 34 Pb -0.1614 1.0709 5.0047 0
M  V30 35 Pb 0.8633 0.8362 4.0157 0
M  V30 36 Pd 1.6867 -2.5809 -5.6012 0
M  V30 37 Pb 2.3347 -1.8231 -5.6234 0
M  V30 38 Pb 0.9372 -1.9402 -5.7661 0
M  V30 39 Pb 2.4145 -3.2150 -5.3448 0
M  V30 40 Pb 0.9912 -3.2943 -5.5270 0
M  V30 41 Pd -4.7689 -2.1498 -2.6743 0
M  V30 42 Pb -4.3383 -2.8973 -3.1794 0
M  V30 43 Pb -4.3541 -1.5297 -3.3385 0
M  V30 44 Pb -5.0966 -2.7962 -1.9964 0
M  V30 45 Pb -5.1094 -1.3747 -2.1070 0
M  V30 46 Ag 2.5757 3.3838 -4.4596 0
M  V30 47 Fe 2.7731 1.0968 -5.0585 0
M  V30 48 Ag 2.7642 -1.2119 -5.6035 0
M  V30 49 Ag 2.2782 -8.6651 -1.5581 0
M  V30 50 Fe 0.7426 -7.5513 -0.1261 0
M  V30 51 Ag 0.1046 -6.2331 1.7458 0
M  V30 52 Ag 2.4621 6.5817 4.9580 0
M  V30 53 Fe 1.4204 4.7760 6.0458 0
M  V30 54 Ag 0.6208 2.5654 6.1100 0
M  V30 55 Ag 4.2086 -7.1953 -2.1699 0
M  V30 56 Fe 3.5813 -5.4363 -3.6366 0
M  V30 57 Ag 2.9517 -3.6761 -5.1008 0
M  V30 58 Ag 3.5641 -9.6963 0.1586 0
M  V30 59 Fe 2.4432 -9.1515 2.1465 0
M  V30 60 Ag 1.4711 -7.3684 3.3221 0
M  V30 61 Ag 0.0694 3.8089 -4.4241 0
M  V30 62 Fe -1.9433 3.8799 -3.1894 0
M  V30 63 Ag -3.4030 4.5339 -1.4509 0
M  V30 64 Ag 0.3353 -1.4959 -5.8134 0
M  V30 65 Fe -1.8430 -1.1775 -4.9253 0
M  V30 66 Ag -3.9556 -1.1465 -3.8433 0
M  V30 67 Ag 0.3976 -3.7425 -5.4391 0
M  V30 68 Fe -1.7994 -3.7413 -4.5394 0
M  V30 69 Ag -3.9292 -3.4079 -3.5451 0
M  V30 70 Ag 1.9110 7.7546 2.8841 0
M  V30 71 Fe -0.1840 7.5497 1.7895 0
M  V30 72 Ag -2.1887 6.9773 0.6557 0
M  V30 73 Ag 3.5859 6.4136 1.6704 0
M  V30 74 Fe 3.1995 5.8951 -0.6161 0
M  V30 75 Ag 2.7263 5.3433 -2.8783 0
M  V30 76 Ag -4.6678 -0.9342 2.5811 0
M  V30 77 Fe -5.0850 -2.4817 0.8587 0
M  V30 78 Ag -5.2486 -3.1761 -1.3824 0
M  V30 79 Ag 1.4991 -4.1429 2.0210 0
M  V30 80 Fe 1.2433 -1.8734 2.6794 0
M  V30 81 Ag 0.9743 0.3614 3.4429 0
M  V30 82 Ba 3.5777 4.8706 3.7238 0
M  V30 83 Ga 2.8927 3.5877 4.0841 0
M  V30 84 Ba 2.3002 2.2606 4.4477 0
M  V30 85 Ba -4.4031 2.5198 2.5130 0
M  V30 86 Ga -4.0668 3.7553 1.7723 0
M  V30 87 Ba -3.7898 5.0592 1.1304 0
M  V30 88 Ba -3.5635 0.6463 4.0549 0
M  V30 89 Ga -2.1954 0.7589 4.6027 0
M  V30 90 Ba -0.8507 0.8499 5.2093 0
M  V30 91 Ba 4.6593 -7.5656 0.3444 0
M  V30 92 Ga 3.9720 -6.7740 1.4250 0
M  V30 93 Ba 3.2496 -5.9916 2.4893 0
M  V30 94 Ba -5.1452 0.6992 0.8949 0
M  V30 95 Ga -5.2015 -0.0912 -0.3762 0
M  V30 96 Ba -5.3673 -0.7776 -1.6972 0
M  V30 97 Ba 0.3233 5.8490 -3.3691 0
M  V30 98 Ga -0.8260 6.0608 -2.4506 0
M  V30 99 Ba -1.9865 6.3879 -1.5812 0
M  V30 END ATOM
M  V30 BEGIN BOND
M  V30 1 1 1 2
M  V30 2 1 1 3
M  V30 3 1 1 4
M  V30 4 1 1 5
M  V30 5 1 6 7
M  V30 6 1 6 8
M  V30 7 1 6 9
M  V30 8 1 6 10
M  V30 9 1 11 12
M  V30 10 1 11 13
M  V30 11 1 11 14
M  V30 12 1 11 15
M  V30 13 1 16 17
M  V30 14 1 16 18
M  V30 15 1 16 19
M  V30 16 1 16 20
M  V30 17 1 21 22
M  V30 18 1 21 23
M  V30 19 1 21 24
M  V30 20 1 21 25
M  V30 21 1 26 27
M  V30 22 1 26 28
M  V30 23 1 26 29
M  V30 24 1 26 30
M  V30 25 1 31 32
M  V30 26 1 31 33
M  V30 27 1 31 34
M  V30 28 1 31 35
M  V30 29 1 36 37
M  V30 30 1 36 38
M  V30 31 1 36 39
M  V30 32 1 36 40
M  V30 33 1 41 42
M  V30 34 1 41 43
M  V30 35 1 41 44
M  V30 36 1 41 45
M  V30 37 1 46 47
M  V30 38 1 47 48
M  V30 39 1 49 50
M  V30 40 1 50 51
M  V30 41 1 52 53
M  V30 42 1 53 54
M  V30 43 1 55 56
M  V30 44 1 56 57
M  V30 45 1 58 59
M  V30 46 1 59 60
M  V30 47 1 61 62
M  V30 48 1 62 63
M  V30 49 1 64 65
M  V30 50 1 65 66
M  V30 51 1 67 68
M  V30 52 1 68 69
M  V30 53 1 70 71
M  V30 54 1 71 72
M  V30 55 1 73 74
M  V30 56 1 74 75
M  V30 57 1 76 77
M  V30 58 1 77 78
M  V30 59 1 79 80
M  V30 60 1 80 81
M  V30 61 1 82 83
M  V30 62 1 83 84
M  V30 63 1 85 86
M  V30 64 1 86 87
M  V30 65 1 88 89
M  V30 66 1 89 90
M  V30 67 1 91 92
M  V30 68 1 92 93
M  V30 69 1 94 95
M  V30 70 1 95 96
M  V30 71 1 97 98
M  V30 72 1 98 99
M  V30 73 1 2 55
M  V30 74 1 3 58
M  V30 75 1 4 91
M  V30 76 1 5 49
M  V30 77 1 7 94
M  V30 78 1 8 85
M  V30 79 1 9 76
M  V30 80 1 10 88
M  V30 81 1 12 51
M  V30 82 1 13 79
M  V30 83 1 14 93
M  V30 84 1 15 60
M  V30 85 1 17 73
M  V30 86 1 18 82
M  V30 87 1 19 52
M  V30 88 1 20 70
M  V30 89 1 22 46
M  V30 90 1 23 97
M  V30 91 1 24 75
M  V30 92 1 25 61
M  V30 93 1 27 72
M  V30 94 1 28 87
M  V30 95 1 29 63
M  V30 96 1 30 99
M  V30 97 1 32 54
M  V30 98 1 33 84
M  V30 99 1 34 90
M  V30 100 1 35 81
M  V30 101 1 37 48
M  V30 102 1 38 64
M  V30 103 1 39 57
M  V30 104 1 40 67
M  V30 105 1 42 69
M  V30 106 1 43 66
M  V30 107 1 44 78
M  V30 108 1 45 96
M  V30 END BOND
M  V30 END CTAB
M  END

$$$$
