
     RDKit          3D

  0  0  0  0  0  0  0  0  0  0999 V3000
M  V30 BEGIN CTAB
M  V30 COUNTS 99 108 0 0 0
M  V30 BEGIN ATOM
M  V30 1 Pd -1.7215 -1.7879 3.9768 0
M  V30 2 Pb -1.3044 -2.2544 3.1937 0
M  V30 3 Pb -2.0755 -2.6627 4.3227 0
M  V30 4 Pb -1.3493 -0.9094 3.6769 0
M  V30 5 Pb -2.1500 -1.2750 4.7213 0
M  V30 6 Pd -5.1404 -1.9847 -2.6270 0
M  V30 7 Pb -4.2068 -1.6448 -2.7378 0
M  V30 8 Pb -6.0342 -2.3612 -2.3966 0
M  V30 9 Pb -5.5139 -1.0654 -2.5192 0
M  V30 10 Pb -4.7784 -2.9125 -2.5289 0
M  V30 11 Pd 5.3719 -0.6585 -5.3697 0
M  V30 12 Pb 6.2854 -0.9224 -5.0788 0
M  V30 13 Pb 4.4556 -0.3804 -5.6583 0
M  V30 14 Pb 5.7037 0.2694 -5.5368 0
M  V30 15 Pb 5.0221 -1.5583 -5.0490 0
M  V30 16 Pd 5.1505 5.7715 -1.6235 0
M  V30 17 Pb 5.5537 5.3449 -2.4350 0
M  V30 18 Pb 4.7190 6.1704 -0.8184 0
M  V30 19 Pb 4.3534 6.0387 -2.1624 0
M  V30 20 Pb 5.8736 5.4160 -1.0262 0
M  V30 21 Pd -1.1197 2.4030 -3.0662 0
M  V30 22 Pb -1.3972 1.4542 -2.9144 0
M  V30 23 Pb -0.6949 2.0888 -3.9136 0
M  V30 24 Pb -0.7542 3.3184 -3.2313 0
M  V30 25 Pb -1.4621 2.7043 -2.1729 0
M  V30 26 Pd 4.1523 3.2191 2.5425 0
M  V30 27 Pb 3.9149 4.1737 2.3764 0
M  V30 28 Pb 4.3840 2.2640 2.7302 0
M  V30 29 Pb 3.1918 3.0085 2.7234 0
M  V30 30 Pb 5.0865 3.4299 2.2427 0
M  V30 31 Pd 4.4334 -3.5129 -0.4903 0
M  V30 32 Pb 3.4435 -3.5566 -0.3434 0
M  V30 33 Pb 4.5555 -3.2034 0.4499 0
M  V30 34 Pb 4.3283 -3.6550 -1.4911 0
M  V30 35 Pb 5.4200 -3.4967 -0.6126 0
M  V30 36 Pd -5.3129 1.7495 3.3984 0
M  V30 37 Pb -4.5952 2.3054 2.9799 0
M  V30 38 Pb -5.9974 1.1318 3.7837 0
M  V30 39 Pb -5.8008 1.8471 2.5306 0
M  V30 40 Pb -4.7802 1.5784 4.2285 0
M  V30 41 Pd -5.9274 -5.2609 3.1669 0
M  V30 42 Pb -6.6730 -5.1655 2.5111 0
M  V30 43 Pb -5.1359 -5.2697 3.7800 0
M  V30 44 Pb -6.4262 -4.6652 3.7919 0
M  V30 45 Pb -5.4065 -5.6983 2.4334 0
M  V30 46 Ag -1.0066 -2.5831 2.5860 0
M  V30 47 Fe 0.8530 -3.0912 1.1947 0
M  V30 48 Ag 2.7066 -3.6047 -0.2026 0
M  V30 49 Ag -1.6575 2.9537 -1.4895 0
M  V30 50 Fe -2.8645 2.8304 0.5547 0
M  V30 51 Ag -4.0830 2.6916 2.5910 0
M  V30 52 Ag 3.7056 6.1671 -2.5148 0
M  V30 53 Fe 1.6018 5.1829 -3.0040 0
M  V30 54 Ag -0.4099 3.9726 -3.3534 0
M  V30 55 Ag -4.5549 -3.5928 -2.3032 0
M  V30 56 Fe -4.6820 -4.9360 -0.3474 0
M  V30 57 Ag -5.0626 -5.8909 1.7946 0
M  V30 58 Ag -6.6333 -2.6969 -2.1052 0
M  V30 59 Fe -7.1528 -3.9076 -0.1358 0
M  V30 60 Ag -7.1506 -5.0220 1.9553 0
M  V30 61 Ag 6.8889 -1.1777 -4.7354 0
M  V30 62 Fe 7.0535 -2.3784 -2.7186 0
M  V30 63 Ag 6.1254 -3.4214 -0.8242 0
M  V30 64 Ag 5.9406 0.9802 -5.5621 0
M  V30 65 Fe 5.9284 3.0377 -4.3742 0
M  V30 66 Ag 5.8148 5.0108 -3.0556 0
M  V30 67 Ag -5.8163 -0.4206 -2.2890 0
M  V30 68 Fe -6.0408 0.8645 -0.3051 0
M  V30 69 Ag -6.0691 1.8994 1.8318 0
M  V30 70 Ag -1.0869 -0.2247 3.5180 0
M  V30 71 Fe 0.7045 1.2928 3.1575 0
M  V30 72 Ag 2.4622 2.8475 2.7901 0
M  V30 73 Ag -6.4301 0.6059 4.0959 0
M  V30 74 Fe -6.7456 -1.7407 4.2505 0
M  V30 75 Ag -6.7744 -4.1111 4.1528 0
M  V30 76 Ag 4.5204 1.5403 2.8753 0
M  V30 77 Fe 4.6147 -0.6971 2.0871 0
M  V30 78 Ag 4.6564 -2.8579 1.1050 0
M  V30 79 Ag 3.7730 -0.1487 -5.8659 0
M  V30 80 Fe 1.6991 0.8319 -5.2535 0
M  V30 81 Ag -0.3270 1.8197 -4.5076 0
M  V30 82 Ba -3.4776 -1.4705 -2.7553 0
M  V30 83 Ga -2.5609 -0.3160 -2.8117 0
M  V30 84 Ba -1.5057 0.7137 -2.8594 0
M  V30 85 Ba 4.3848 6.4212 -0.1997 0
M  V30 86 Ga 4.0485 5.7078 1.0409 0
M  V30 87 Ba 3.7643 4.8910 2.2297 0
M  V30 88 Ba 4.7596 -2.2319 -4.7910 0
M  V30 89 Ga 4.5270 -2.9454 -3.4956 0
M  V30 90 Ba 4.2616 -3.7340 -2.2510 0
M  V30 91 Ba 6.3548 5.1226 -0.5260 0
M  V30 92 Ga 6.1062 4.3667 0.7231 0
M  V30 93 Ba 5.7562 3.6201 1.9533 0
M  V30 94 Ba -2.4550 -0.8142 5.2299 0
M  V30 95 Ga -3.4283 0.2869 5.0822 0
M  V30 96 Ba -4.4065 1.3681 4.8457 0
M  V30 97 Ba -2.3112 -3.3226 4.6039 0
M  V30 98 Ga -3.4275 -4.2728 4.4044 0
M  V30 99 Ba -4.5322 -5.2408 4.2265 0
M  V30 END ATOM
M  V30 BEGIN BOND
M  V30 1 1 1 2
M  V30 2 1 1 3
M  V30 3 1 1 4
M  V30 4 1 1 5
M  V30 5 1 6 7
M  V30 6 1 6 8
M  V30 7 1 6 9
M  V30 8 1 6 10
M  V30 9 1 11 12
M  V30 10 1 11 13
M  V30 11 1 11 14
M  V30 12 1 11 15
M  V30 13 1 16 17
M  V30 14 1 16 18
M  V30 15 1 16 19
M  V30 16 1 16 20
M  V30 17 1 21 22
M  V30 18 1 21 23
M  V30 19 1 21 24
M  V30 20 1 21 25
M  V30 21 1 26 27
M  V30 22 1 26 28
M  V30 23 1 26 29
M  V30 24 1 26 30
M  V30 25 1 31 32
M  V30 26 1 31 33
M  V30 27 1 31 34
M  V30 28 1 31 35
M  V30 29 1 36 37
M  V30 30 1 36 38
M  V30 31 1 36 39
M  V30 32 1 36 40
M  V30 33 1 41 42
M  V30 34 1 41 43
M  V30 35 1 41 44
M  V30 36 1 41 45
M  V30 37 1 46 47
M  V30 38 1 47 48
M  V30 39 1 49 50
M  V30 40 1 50 51
M  V30 41 1 52 53
M  V30 42 1 53 54
M  V30 43 1 55 56
M  V30 44 1 56 57
M  V30 45 1 58 59
M  V30 46 1 59 60
M  V30 47 1 61 62
M  V30 48 1 62 63
M  V30 49 1 64 65
M  V30 50 1 65 66
M  V30 51 1 67 68
M  V30 52 1 68 69
M  V30 53 1 70 71
M  V30 54 1 71 72
M  V30 55 1 73 74
M  V30 56 1 74 75
M  V30 57 1 76 77
M  V30 58 1 77 78
M  V30 59 1 79 80
M  V30 60 1 80 81
M  V30 61 1 82 83
M  V30 62 1 83 84
M  V30 63 1 85 86
M  V30 64 1 86 87
M  V30 65 1 88 89
M  V30 66 1 89 90
M  V30 67 1 91 92
M  V30 68 1 92 93
M  V30 69 1 94 95
M  V30 70 1 95 96
M  V30 71 1 97 98
M  V30 72 1 98 99
M  V30 73 1 2 46
M  V30 74 1 3 97
M  V30 75 1 4 70
M  V30 76 1 5 94
M  V30 77 1 7 82
M  V30 78 1 8 58
M  V30 79 1 9 67
M  V30 80 1 10 55
M  V30 81 1 12 61
M  V30 82 1 13 79
M  V30 83 1 14 64
M  V30 84 1 15 88
M  V30 85 1 17 66
M  V30 86 1 18 85
M  V30 87 1 19 52
M  V30 88 1 20 91
M  V30 89 1 22 84
M  V30 90 1 23 81
M  V30 91 1 24 54
M  V30 92 1 25 49
M  V30 93 1 27 87
M  V30 94 1 28 76
M  V30 95 1 29 72
M  V30 96 1 30 93
M  V30 97 1 32 48
M  V30 98 1 33 78
M  V30 99 1 34 90
M  V30 100 1 35 63
M  V30 101 1 37 51
M  V30 102 1 38 73
M  V30 103 1 39 69
M  V30 104 1 40 96
M  V30 105 1 42 60
M  V30 106 1 43 99
M  V30 107 1 44 75
M  V30 108 1 45 57
M  V30 END BOND
M  V30 END CTAB
M  END

$$$$
