
     RDKit          3D

  0  0  0  0  0  0  0  0  0  0999 V3000
M  V30 BEGIN CTAB
M  V30 COUNTS 99 108 0 0 0
M  V30 BEGIN ATOM
M  V30 1 Pd -2.5429 0.6040 -9.8933 0
M  V30 2 Pb -1.6682 0.4094 -9.4200 0
M  V30 3 Pb -2.4026 1.5992 -9.7678 0
M  V30 4 Pb -2.7471 -0.3693 -9.8905 0
M  V30 5 Pb -3.4562 0.7919 -10.2437 0
M  V30 6 Pd 2.7182 -0.3757 7.8349 0
M  V30 7 Pb 2.4579 -1.3024 8.1583 0
M  V30 8 Pb 3.6742 -0.6321 7.9428 0
M  V30 9 Pb 1.7576 -0.1274 7.7053 0
M  V30 10 Pb 2.9876 0.5129 7.4640 0
M  V30 11 Pd -2.3168 0.4120 0.4447 0
M  V30 12 Pb -1.8708 -0.0459 1.2147 0
M  V30 13 Pb -2.5761 1.1425 1.0744 0
M  V30 14 Pb -2.0258 -0.3298 -0.1655 0
M  V30 15 Pb -2.8416 0.8927 -0.2608 0
M  V30 16 Pd 0.3044 2.9690 4.4362 0
M  V30 17 Pb 1.2036 2.9653 4.8750 0
M  V30 18 Pb 0.6506 3.5704 3.7141 0
M  V30 19 Pb -0.6070 3.0032 4.0249 0
M  V30 20 Pb -0.0375 2.3660 5.1584 0
M  V30 21 Pd -0.2496 -1.1486 -4.7714 0
M  V30 22 Pb -0.4561 -1.4544 -3.8393 0
M  V30 23 Pb -0.8766 -1.8340 -5.1281 0
M  V30 24 Pb 0.4627 -0.5173 -4.4608 0
M  V30 25 Pb -0.0732 -0.8434 -5.7244 0
M  V30 26 Pd 1.8718 2.8956 -1.0482 0
M  V30 27 Pb 2.3320 2.1830 -0.5222 0
M  V30 28 Pb 1.4194 3.5830 -1.6138 0
M  V30 29 Pb 2.0173 2.3424 -1.8678 0
M  V30 30 Pb 1.7654 3.4791 -0.2394 0
M  V30 31 Pd 1.1701 -3.8200 2.5527 0
M  V30 32 Pb 0.5471 -3.0610 2.7411 0
M  V30 33 Pb 1.8168 -4.5778 2.4441 0
M  V30 34 Pb 0.5609 -4.4475 3.0330 0
M  V30 35 Pb 1.8090 -3.1656 2.1534 0
M  V30 36 Pd -3.8394 4.3902 -6.0381 0
M  V30 37 Pb -4.6905 4.1729 -6.5083 0
M  V30 38 Pb -4.2392 4.1736 -5.1501 0
M  V30 39 Pb -3.0008 4.6662 -5.5699 0
M  V30 40 Pb -3.3815 4.4279 -6.9389 0
M  V30 41 Pd 2.8866 -5.9305 6.3902 0
M  V30 42 Pb 3.1658 -6.3449 5.5247 0
M  V30 43 Pb 2.5907 -5.3578 7.1708 0
M  V30 44 Pb 1.9364 -6.0981 6.1319 0
M  V30 45 Pb 3.8331 -5.7287 6.6242 0
M  V30 46 Ag -2.8727 -1.0695 -9.6848 0
M  V30 47 Fe -2.2877 -2.1301 -7.6626 0
M  V30 48 Ag -1.3012 -2.2938 -5.5271 0
M  V30 49 Ag 2.6753 1.6093 -0.1862 0
M  V30 50 Fe 2.5110 -0.5120 0.8644 0
M  V30 51 Ag 2.2692 -2.6298 1.9070 0
M  V30 52 Ag -3.2920 1.3104 -0.6960 0
M  V30 53 Fe -3.8789 2.6172 -2.5918 0
M  V30 54 Ag -4.4768 3.9189 -4.4876 0
M  V30 55 Ag 4.3331 -0.9712 7.9757 0
M  V30 56 Fe 4.9210 -3.2027 7.4963 0
M  V30 57 Ag 4.4749 -5.4181 6.8274 0
M  V30 58 Ag -4.1559 1.0276 -10.3029 0
M  V30 59 Fe -5.2266 2.5284 -8.8369 0
M  V30 60 Ag -5.2347 3.9655 -6.9695 0
M  V30 61 Ag 1.0846 4.0698 -2.0733 0
M  V30 62 Fe -0.6505 4.4989 -3.6356 0
M  V30 63 Ag -2.3951 4.8990 -5.1949 0
M  V30 64 Ba -2.3206 2.3499 -9.6573 0
M  V30 65 Ga -2.6867 3.3603 -8.6225 0
M  V30 66 Ba -3.0315 4.4058 -7.6155 0
M  V30 67 Ba 1.0528 -0.0770 -4.3108 0
M  V30 68 Ga 1.5475 0.9332 -3.3561 0
M  V30 69 Ba 2.1716 1.9488 -2.4865 0
M  V30 70 Ba 2.2864 -5.1655 2.4405 0
M  V30 71 Ga 2.8510 -5.9173 3.5794 0
M  V30 72 Ba 3.3264 -6.5555 4.8233 0
M  V30 73 Ba 3.1840 1.1674 7.1551 0
M  V30 74 Ga 2.5339 2.0763 6.1917 0
M  V30 75 Ba 1.8663 2.9714 5.2275 0
M  V30 76 Ba 0.9077 4.0353 3.1828 0
M  V30 77 Ga 1.2975 3.9537 1.7596 0
M  V30 78 Ba 1.7055 3.9570 0.3393 0
M  V30 79 Ba 1.0421 0.0688 7.5912 0
M  V30 80 Ga 0.3700 0.9883 6.6521 0
M  V30 81 Ba -0.2832 1.9128 5.7046 0
M  V30 82 Ba -1.5970 -0.3460 1.8462 0
M  V30 83 Ga -0.7300 -1.4397 2.3244 0
M  V30 84 Ba 0.1086 -2.4861 2.9397 0
M  V30 85 Ba 0.1664 -4.9193 3.4578 0
M  V30 86 Ga 0.6183 -5.6008 4.6811 0
M  V30 87 Ba 1.2392 -6.1930 5.8764 0
M  V30 88 Ba -2.7549 1.6865 1.5565 0
M  V30 89 Ga -2.0258 2.3675 2.6421 0
M  V30 90 Ba -1.2946 3.0469 3.7273 0
M  V30 91 Ba 2.2703 -1.9954 8.4233 0
M  V30 92 Ga 2.3386 -3.4357 8.0362 0
M  V30 93 Ba 2.3634 -4.8981 7.7356 0
M  V30 94 Ba -1.0117 0.2652 -9.0577 0
M  V30 95 Ga -0.5197 -0.1836 -7.7214 0
M  V30 96 Ba 0.1011 -0.6213 -6.4361 0
M  V30 97 Ba -1.7758 -0.9228 -0.5576 0
M  V30 98 Ga -1.2125 -1.2662 -1.8811 0
M  V30 99 Ba -0.6412 -1.7300 -3.1640 0
M  V30 END ATOM
M  V30 BEGIN BOND
M  V30 1 1 1 2
M  V30 2 1 1 3
M  V30 3 1 1 4
M  V30 4 1 1 5
M  V30 5 1 6 7
M  V30 6 1 6 8
M  V30 7 1 6 9
M  V30 8 1 6 10
M  V30 9 1 11 12
M  V30 10 1 11 13
M  V30 11 1 11 14
M  V30 12 1 11 15
M  V30 13 1 16 17
M  V30 14 1 16 18
M  V30 15 1 16 19
M  V30 16 1 16 20
M  V30 17 1 21 22
M  V30 18 1 21 23
M  V30 19 1 21 24
M  V30 20 1 21 25
M  V30 21 1 26 27
M  V30 22 1 26 28
M  V30 23 1 26 29
M  V30 24 1 26 30
M  V30 25 1 31 32
M  V30 26 1 31 33
M  V30 27 1 31 34
M  V30 28 1 31 35
M  V30 29 1 36 37
M  V30 30 1 36 38
M  V30 31 1 36 39
M  V30 32 1 36 40
M  V30 33 1 41 42
M  V30 34 1 41 43
M  V30 35 1 41 44
M  V30 36 1 41 45
M  V30 37 1 46 47
M  V30 38 1 47 48
M  V30 39 1 49 50
M  V30 40 1 50 51
M  V30 41 1 52 53
M  V30 42 1 53 54
M  V30 43 1 55 56
M  V30 44 1 56 57
M  V30 45 1 58 59
M  V30 46 1 59 60
M  V30 47 1 61 62
M  V30 48 1 62 63
M  V30 49 1 64 65
M  V30 50 1 65 66
M  V30 51 1 67 68
M  V30 52 1 68 69
M  V30 53 1 70 71
M  V30 54 1 71 72
M  V30 55 1 73 74
M  V30 56 1 74 75
M  V30 57 1 76 77
M  V30 58 1 77 78
M  V30 59 1 79 80
M  V30 60 1 80 81
M  V30 61 1 82 83
M  V30 62 1 83 84
M  V30 63 1 85 86
M  V30 64 1 86 87
M  V30 65 1 88 89
M  V30 66 1 89 90
M  V30 67 1 91 92
M  V30 68 1 92 93
M  V30 69 1 94 95
M  V30 70 1 95 96
M  V30 71 1 97 98
M  V30 72 1 98 99
M  V30 73 1 2 94
M  V30 74 1 3 64
M  V30 75 1 4 46
M  V30 76 1 5 58
M  V30 77 1 7 91
M  V30 78 1 8 55
M  V30 79 1 9 79
M  V30 80 1 10 73
M  V30 81 1 12 82
M  V30 82 1 13 88
M  V30 83 1 14 97
M  V30 84 1 15 52
M  V30 85 1 17 75
M  V30 86 1 18 76
M  V30 87 1 19 90
M  V30 88 1 20 81
M  V30 89 1 22 99
M  V30 90 1 23 48
M  V30 91 1 24 67
M  V30 92 1 25 96
M  V30 93 1 27 49
M  V30 94 1 28 61
M  V30 95 1 29 69
M  V30 96 1 30 78
M  V30 97 1 32 84
M  V30 98 1 33 70
M  V30 99 1 34 85
M  V30 100 1 35 51
M  V30 101 1 37 60
M  V30 102 1 38 54
M  V30 103 1 39 63
M  V30 104 1 40 66
M  V30 105 1 42 72
M  V30 106 1 43 93
M  V30 107 1 44 87
M  V30 108 1 45 57
M  V30 END BOND
M  V30 END CTAB
M  END

$$$$
