
     RDKit          3D

  0  0  0  0  0  0  0  0  0  0999 V3000
M  V30 BEGIN CTAB
M  V30 COUNTS 99 108 0 0 0
M  V30 BEGIN ATOM
M  V30 1 Pd 4.6636 1.2528 0.2799 0
M  V30 2 Pb 4.2862 0.3781 0.5916 0
M  V30 3 Pb 5.0581 2.1113 -0.0517 0
M  V30 4 Pb 4.2011 1.7744 0.9981 0
M  V30 5 Pb 5.1406 0.7381 -0.4295 0
M  V30 6 Pd 0.1295 3.9870 -5.3069 0
M  V30 7 Pb -0.1882 3.6408 -4.4256 0
M  V30 8 Pb 0.5585 4.7877 -4.8573 0
M  V30 9 Pb -0.0322 3.1014 -5.7379 0
M  V30 10 Pb 0.3746 4.3490 -6.2013 0
M  V30 11 Pd -4.3334 -5.5004 2.4622 0
M  V30 12 Pb -4.3338 -5.6347 3.4467 0
M  V30 13 Pb -4.3510 -5.4059 1.4650 0
M  V30 14 Pb -5.2835 -5.1930 2.5150 0
M  V30 15 Pb -3.3497 -5.7607 2.4411 0
M  V30 16 Pd -6.4094 -0.6063 2.7973 0
M  V30 17 Pb -6.8063 -1.5249 2.8339 0
M  V30 18 Pb -5.9970 0.3039 2.7646 0
M  V30 19 Pb -6.6310 -0.5586 1.8253 0
M  V30 20 Pb -6.1055 -0.6474 3.7496 0
M  V30 21 Pd -3.3489 -1.6929 -1.4326 0
M  V30 22 Pb -3.0086 -0.7540 -1.4268 0
M  V30 23 Pb -3.6643 -2.6417 -1.4139 0
M  V30 24 Pb -4.2880 -1.3760 -1.2886 0
M  V30 25 Pb -2.4158 -1.9968 -1.6251 0
M  V30 26 Pd -0.6108 2.2730 5.8264 0
M  V30 27 Pb -1.2985 2.7295 5.2652 0
M  V30 28 Pb 0.0668 1.7174 6.3032 0
M  V30 29 Pb 0.1321 2.7351 5.3459 0
M  V30 30 Pb -1.3612 1.7433 6.2242 0
M  V30 31 Pd 1.0794 -4.4359 4.5906 0
M  V30 32 Pb 1.6000 -4.0780 3.8144 0
M  V30 33 Pb 1.5274 -3.7880 5.2030 0
M  V30 34 Pb 0.5319 -5.0231 3.9665 0
M  V30 35 Pb 0.5414 -4.7649 5.3585 0
M  V30 36 Pd 3.4723 -0.0052 -4.7795 0
M  V30 37 Pb 2.8436 -0.6035 -4.2794 0
M  V30 38 Pb 4.1699 0.5542 -5.2394 0
M  V30 39 Pb 2.7093 0.2342 -5.3928 0
M  V30 40 Pb 4.2123 -0.2626 -4.1614 0
M  V30 41 Pd 5.2834 4.8501 -4.3089 0
M  V30 42 Pb 4.4986 5.4428 -4.0669 0
M  V30 43 Pb 5.4468 4.6227 -3.3452 0
M  V30 44 Pb 5.8467 4.0999 -4.6457 0
M  V30 45 Pb 5.2122 5.1483 -5.2553 0
M  V30 46 Ag -0.4714 3.3907 -3.7791 0
M  V30 47 Fe -1.5897 1.6744 -2.5800 0
M  V30 48 Ag -2.7089 -0.0677 -1.4196 0
M  V30 49 Ag 4.0501 -0.3171 0.7562 0
M  V30 50 Fe 2.9954 -2.0119 2.0464 0
M  V30 51 Ag 1.9794 -3.8085 3.2252 0
M  V30 52 Ag -1.7133 -2.1967 -1.7961 0
M  V30 53 Fe 0.3428 -1.6323 -2.8446 0
M  V30 54 Ag 2.4002 -1.0713 -3.8927 0
M  V30 55 Ag -5.6490 0.9670 2.7997 0
M  V30 56 Fe -3.7927 2.1075 3.7415 0
M  V30 57 Ag -1.8576 2.9558 4.8227 0
M  V30 58 Ag 0.6974 4.6281 -6.8052 0
M  V30 59 Fe 2.9566 5.2227 -7.0233 0
M  V30 60 Ag 5.0396 5.3410 -5.9486 0
M  V30 61 Ag -4.2040 -5.7256 4.1697 0
M  V30 62 Fe -2.2521 -5.4888 5.4653 0
M  V30 63 Ag 0.0210 -4.9962 5.8304 0
M  V30 64 Ag -5.7939 -0.6071 4.4312 0
M  V30 65 Fe -3.9202 0.3043 5.5732 0
M  V30 66 Ag -1.9569 1.3339 6.4282 0
M  V30 67 Ag 3.8824 2.2075 1.5225 0
M  V30 68 Fe 2.2966 2.6288 3.2392 0
M  V30 69 Ag 0.7001 3.0226 4.9527 0
M  V30 70 Ag 0.5687 1.2323 6.5698 0
M  V30 71 Fe 1.3126 -0.9965 6.2506 0
M  V30 72 Ag 1.7708 -3.2458 5.6561 0
M  V30 73 Ba -6.7520 -0.5330 1.0875 0
M  V30 74 Ga -5.8840 -0.8346 -0.0661 0
M  V30 75 Ba -4.9971 -1.1419 -1.2037 0
M  V30 76 Ba -2.6144 -5.9790 2.4142 0
M  V30 77 Ga -1.2708 -5.6673 2.9934 0
M  V30 78 Ba 0.1261 -5.4648 3.4889 0
M  V30 79 Ba 0.9570 5.3479 -4.5209 0
M  V30 80 Ga 2.4042 5.5898 -4.2269 0
M  V30 81 Ba 3.8521 5.8294 -3.9340 0
M  V30 82 Ba -5.9846 -4.9353 2.5823 0
M  V30 83 Ga -6.5560 -3.5802 2.7086 0
M  V30 84 Ba -7.1030 -2.2151 2.8336 0
M  V30 85 Ba -0.0055 2.4287 -6.0681 0
M  V30 86 Ga 1.0290 1.3746 -5.9507 0
M  V30 87 Ba 2.0865 0.3462 -5.8107 0
M  V30 88 Ba 5.4819 0.3256 -0.9515 0
M  V30 89 Ga 5.1440 -0.0592 -2.3315 0
M  V30 90 Ba 4.7843 -0.4304 -3.7097 0
M  V30 91 Ba 4.7937 0.9027 -5.4894 0
M  V30 92 Ga 5.4812 2.1933 -5.2564 0
M  V30 93 Ba 6.1238 3.5028 -5.0030 0
M  V30 94 Ba 5.3616 2.7632 -0.2684 0
M  V30 95 Ga 5.4541 3.6015 -1.4822 0
M  V30 96 Ba 5.6229 4.5314 -2.6182 0
M  V30 97 Ba -4.3835 -5.3631 0.7152 0
M  V30 98 Ga -4.1332 -4.3484 -0.3274 0
M  V30 99 Ba -3.8912 -3.3562 -1.3933 0
M  V30 END ATOM
M  V30 BEGIN BOND
M  V30 1 1 1 2
M  V30 2 1 1 3
M  V30 3 1 1 4
M  V30 4 1 1 5
M  V30 5 1 6 7
M  V30 6 1 6 8
M  V30 7 1 6 9
M  V30 8 1 6 10
M  V30 9 1 11 12
M  V30 10 1 11 13
M  V30 11 1 11 14
M  V30 12 1 11 15
M  V30 13 1 16 17
M  V30 14 1 16 18
M  V30 15 1 16 19
M  V30 16 1 16 20
M  V30 17 1 21 22
M  V30 18 1 21 23
M  V30 19 1 21 24
M  V30 20 1 21 25
M  V30 21 1 26 27
M  V30 22 1 26 28
M  V30 23 1 26 29
M  V30 24 1 26 30
M  V30 25 1 31 32
M  V30 26 1 31 33
M  V30 27 1 31 34
M  V30 28 1 31 35
M  V30 29 1 36 37
M  V30 30 1 36 38
M  V30 31 1 36 39
M  V30 32 1 36 40
M  V30 33 1 41 42
M  V30 34 1 41 43
M  V30 35 1 41 44
M  V30 36 1 41 45
M  V30 37 1 46 47
M  V30 38 1 47 48
M  V30 39 1 49 50
M  V30 40 1 50 51
M  V30 41 1 52 53
M  V30 42 1 53 54
M  V30 43 1 55 56
M  V30 44 1 56 57
M  V30 45 1 58 59
M  V30 46 1 59 60
M  V30 47 1 61 62
M  V30 48 1 62 63
M  V30 49 1 64 65
M  V30 50 1 65 66
M  V30 51 1 67 68
M  V30 52 1 68 69
M  V30 53 1 70 71
M  V30 54 1 71 72
M  V30 55 1 73 74
M  V30 56 1 74 75
M  V30 57 1 76 77
M  V30 58 1 77 78
M  V30 59 1 79 80
M  V30 60 1 80 81
M  V30 61 1 82 83
M  V30 62 1 83 84
M  V30 63 1 85 86
M  V30 64 1 86 87
M  V30 65 1 88 89
M  V30 66 1 89 90
M  V30 67 1 91 92
M  V30 68 1 92 93
M  V30 69 1 94 95
M  V30 70 1 95 96
M  V30 71 1 97 98
M  V30 72 1 98 99
M  V30 73 1 2 49
M  V30 74 1 3 94
M  V30 75 1 4 67
M  V30 76 1 5 88
M  V30 77 1 7 46
M  V30 78 1 8 79
M  V30 79 1 9 85
M  V30 80 1 10 58
M  V30 81 1 12 61
M  V30 82 1 13 97
M  V30 83 1 14 82
M  V30 84 1 15 76
M  V30 85 1 17 84
M  V30 86 1 18 55
M  V30 87 1 19 73
M  V30 88 1 20 64
M  V30 89 1 22 48
M  V30 90 1 23 99
M  V30 91 1 24 75
M  V30 92 1 25 52
M  V30 93 1 27 57
M  V30 94 1 28 70
M  V30 95 1 29 69
M  V30 96 1 30 66
M  V30 97 1 32 51
M  V30 98 1 33 72
M  V30 99 1 34 78
M  V30 100 1 35 63
M  V30 101 1 37 54
M  V30 102 1 38 91
M  V30 103 1 39 87
M  V30 104 1 40 90
M  V30 105 1 42 81
M  V30 106 1 43 96
M  V30 107 1 44 93
M  V30 108 1 45 60
M  V30 END BOND
M  V30 END CTAB
M  END

$$$$
