
     RDKit          3D

  0  0  0  0  0  0  0  0  0  0999 V3000
M  V30 BEGIN CTAB
M  V30 COUNTS 99 108 0 0 0
M  V30 BEGIN ATOM
M  V30 1 Pd -2.8917 -1.0483 3.0054 0
M  V30 2 Pb -3.5043 -1.7122 2.5755 0
M  V30 3 Pb -2.1378 -1.6024 2.6479 0
M  V30 4 Pb -3.6560 -0.4806 3.3192 0
M  V30 5 Pb -2.2685 -0.4076 3.4578 0
M  V30 6 Pd 7.7902 -3.3309 1.3083 0
M  V30 7 Pb 7.7710 -2.5911 0.6324 0
M  V30 8 Pb 7.7936 -4.0638 1.9864 0
M  V30 9 Pb 8.1030 -2.6948 2.0117 0
M  V30 10 Pb 7.3417 -3.9616 0.6730 0
M  V30 11 Pd -1.4781 0.8621 -5.9894 0
M  V30 12 Pb -1.1775 -0.0817 -6.0394 0
M  V30 13 Pb -0.5184 1.1430 -5.9754 0
M  V30 14 Pb -1.7354 1.8320 -5.9924 0
M  V30 15 Pb -2.4489 0.5380 -5.9573 0
M  V30 16 Pd -3.1788 5.0873 -2.7085 0
M  V30 17 Pb -2.8194 4.9824 -3.6357 0
M  V30 18 Pb -4.0853 5.1141 -3.1081 0
M  V30 19 Pb -2.2558 5.1508 -2.3300 0
M  V30 20 Pb -3.5810 5.1164 -1.7681 0
M  V30 21 Pd 4.3534 3.0256 -1.5290 0
M  V30 22 Pb 5.1149 2.3763 -1.5781 0
M  V30 23 Pb 4.0699 2.7850 -2.4575 0
M  V30 24 Pb 3.5745 3.6468 -1.4548 0
M  V30 25 Pb 4.6124 3.2890 -0.6003 0
M  V30 26 Pd -6.9024 2.5922 1.0875 0
M  V30 27 Pb -7.4034 2.9804 0.3259 0
M  V30 28 Pb -7.4670 1.7865 0.9446 0
M  V30 29 Pb -6.4645 2.1894 1.8967 0
M  V30 30 Pb -6.2364 3.3607 1.0364 0
M  V30 31 Pd -5.4797 -2.8087 -3.5041 0
M  V30 32 Pb -5.5218 -3.3739 -2.6847 0
M  V30 33 Pb -6.2324 -2.3087 -3.0794 0
M  V30 34 Pb -5.3272 -2.1155 -4.2391 0
M  V30 35 Pb -4.7427 -3.3595 -3.8751 0
M  V30 36 Pd 4.0673 1.0425 5.6823 0
M  V30 37 Pb 4.3230 1.8592 5.1703 0
M  V30 38 Pb 3.8055 0.1667 6.0846 0
M  V30 39 Pb 5.0233 0.7536 5.6341 0
M  V30 40 Pb 3.1018 1.2984 5.6390 0
M  V30 41 Pd 3.7248 -5.4318 2.7452 0
M  V30 42 Pb 4.5894 -5.7474 3.1287 0
M  V30 43 Pb 2.8846 -5.0591 2.3508 0
M  V30 44 Pb 3.4379 -5.1258 3.6514 0
M  V30 45 Pb 4.0883 -5.6341 1.8332 0
M  V30 46 Ag 7.7568 -2.0292 0.1324 0
M  V30 47 Fe 6.7208 -0.0761 -0.7417 0
M  V30 48 Ag 5.6754 1.8759 -1.6070 0
M  V30 49 Ag -3.9046 -2.2431 2.2275 0
M  V30 50 Fe -4.7721 -3.0704 0.1788 0
M  V30 51 Ag -5.5293 -3.6549 -1.9931 0
M  V30 52 Ag 4.7625 3.5044 0.1017 0
M  V30 53 Fe 4.6807 3.0332 2.4262 0
M  V30 54 Ag 4.5317 2.4108 4.7113 0
M  V30 55 Ag -1.5669 5.2564 -2.0533 0
M  V30 56 Fe 0.7047 4.6443 -1.7333 0
M  V30 57 Ag 2.9874 4.1036 -1.3666 0
M  V30 58 Ag -4.7977 5.1072 -3.2970 0
M  V30 59 Fe -6.6767 4.3099 -2.1371 0
M  V30 60 Ag -7.6866 3.2719 -0.2892 0
M  V30 61 Ag -1.0525 -0.8097 -6.0368 0
M  V30 62 Fe -2.2966 -2.6352 -5.2304 0
M  V30 63 Ag -4.1365 -3.6526 -4.1774 0
M  V30 64 Ag 8.2304 -2.2273 2.5825 0
M  V30 65 Fe 7.1057 -0.8083 4.1178 0
M  V30 66 Ag 5.7289 0.5315 5.5127 0
M  V30 67 Ag -1.8309 0.0824 3.8237 0
M  V30 68 Fe 0.2667 0.7779 4.6967 0
M  V30 69 Ag 2.3730 1.4573 5.5614 0
M  V30 70 Ag 3.5981 -0.5226 6.2894 0
M  V30 71 Fe 3.3775 -2.7314 5.4510 0
M  V30 72 Ag 3.2827 -4.8110 4.3124 0
M  V30 73 Ag -1.6263 -2.0462 2.3211 0
M  V30 74 Fe 0.3330 -3.3883 2.2432 0
M  V30 75 Ag 2.2701 -4.7510 2.0501 0
M  V30 76 Ag -7.8252 1.2031 0.6512 0
M  V30 77 Fe -7.4323 -0.4715 -0.9817 0
M  V30 78 Ag -6.7774 -2.0263 -2.6494 0
M  V30 79 Ag 0.2056 1.3343 -5.9339 0
M  V30 80 Fe 2.0419 1.9804 -4.5732 0
M  V30 81 Ag 3.8316 2.6235 -3.1502 0
M  V30 82 Ba -3.1819 0.2909 -5.9685 0
M  V30 83 Ga -4.1391 -0.6693 -5.3210 0
M  V30 84 Ba -5.2086 -1.5731 -4.7756 0
M  V30 85 Ba 6.9318 -4.4470 0.2711 0
M  V30 86 Ga 5.6748 -5.1258 0.6532 0
M  V30 87 Ba 4.4278 -5.7312 1.1684 0
M  V30 88 Ba 7.7454 -4.6177 2.4872 0
M  V30 89 Ga 6.5544 -5.3237 2.9829 0
M  V30 90 Ba 5.2715 -5.9270 3.3738 0
M  V30 91 Ba -3.8618 5.1580 -1.0494 0
M  V30 92 Ga -4.8139 4.4990 -0.0944 0
M  V30 93 Ba -5.7298 3.9333 0.9518 0
M  V30 94 Ba -1.8528 2.5751 -6.0388 0
M  V30 95 Ga -2.2315 3.7086 -5.1696 0
M  V30 96 Ba -2.6061 4.8781 -4.3474 0
M  V30 97 Ba -4.2038 -0.0306 3.5713 0
M  V30 98 Ga -5.1863 0.9209 3.0070 0
M  V30 99 Ba -6.1999 1.8906 2.5370 0
M  V30 END ATOM
M  V30 BEGIN BOND
M  V30 1 1 1 2
M  V30 2 1 1 3
M  V30 3 1 1 4
M  V30 4 1 1 5
M  V30 5 1 6 7
M  V30 6 1 6 8
M  V30 7 1 6 9
M  V30 8 1 6 10
M  V30 9 1 11 12
M  V30 10 1 11 13
M  V30 11 1 11 14
M  V30 12 1 11 15
M  V30 13 1 16 17
M  V30 14 1 16 18
M  V30 15 1 16 19
M  V30 16 1 16 20
M  V30 17 1 21 22
M  V30 18 1 21 23
M  V30 19 1 21 24
M  V30 20 1 21 25
M  V30 21 1 26 27
M  V30 22 1 26 28
M  V30 23 1 26 29
M  V30 24 1 26 30
M  V30 25 1 31 32
M  V30 26 1 31 33
M  V30 27 1 31 34
M  V30 28 1 31 35
M  V30 29 1 36 37
M  V30 30 1 36 38
M  V30 31 1 36 39
M  V30 32 1 36 40
M  V30 33 1 41 42
M  V30 34 1 41 43
M  V30 35 1 41 44
M  V30 36 1 41 45
M  V30 37 1 46 47
M  V30 38 1 47 48
M  V30 39 1 49 50
M  V30 40 1 50 51
M  V30 41 1 52 53
M  V30 42 1 53 54
M  V30 43 1 55 56
M  V30 44 1 56 57
M  V30 45 1 58 59
M  V30 46 1 59 60
M  V30 47 1 61 62
M  V30 48 1 62 63
M  V30 49 1 64 65
M  V30 50 1 65 66
M  V30 51 1 67 68
M  V30 52 1 68 69
M  V30 53 1 70 71
M  V30 54 1 71 72
M  V30 55 1 73 74
M  V30 56 1 74 75
M  V30 57 1 76 77
M  V30 58 1 77 78
M  V30 59 1 79 80
M  V30 60 1 80 81
M  V30 61 1 82 83
M  V30 62 1 83 84
M  V30 63 1 85 86
M  V30 64 1 86 87
M  V30 65 1 88 89
M  V30 66 1 89 90
M  V30 67 1 91 92
M  V30 68 1 92 93
M  V30 69 1 94 95
M  V30 70 1 95 96
M  V30 71 1 97 98
M  V30 72 1 98 99
M  V30 73 1 2 49
M  V30 74 1 3 73
M  V30 75 1 4 97
M  V30 76 1 5 67
M  V30 77 1 7 46
M  V30 78 1 8 88
M  V30 79 1 9 64
M  V30 80 1 10 85
M  V30 81 1 12 61
M  V30 82 1 13 79
M  V30 83 1 14 94
M  V30 84 1 15 82
M  V30 85 1 17 96
M  V30 86 1 18 58
M  V30 87 1 19 55
M  V30 88 1 20 91
M  V30 89 1 22 48
M  V30 90 1 23 81
M  V30 91 1 24 57
M  V30 92 1 25 52
M  V30 93 1 27 60
M  V30 94 1 28 76
M  V30 95 1 29 99
M  V30 96 1 30 93
M  V30 97 1 32 51
M  V30 98 1 33 78
M  V30 99 1 34 84
M  V30 100 1 35 63
M  V30 101 1 37 54
M  V30 102 1 38 70
M  V30 103 1 39 66
M  V30 104 1 40 69
M  V30 105 1 42 90
M  V30 106 1 43 75
M  V30 107 1 44 72
M  V30 108 1 45 87
M  V30 END BOND
M  V30 END CTAB
M  END

$$$$
