
     RDKit          3D

  0  0  0  0  0  0  0  0  0  0999 V3000
M  V30 BEGIN CTAB
M  V30 COUNTS 99 108 0 0 0
M  V30 BEGIN ATOM
M  V30 1 Pd -0.6754 -5.0349 0.6913 0
M  V30 2 Pb -0.4790 -4.8157 1.6504 0
M  V30 3 Pb -0.8353 -5.4634 -0.2033 0
M  V30 4 Pb 0.2974 -4.9896 0.4751 0
M  V30 5 Pb -1.6510 -4.9085 0.8733 0
M  V30 6 Pd -2.0333 0.4964 -7.5349 0
M  V30 7 Pb -1.4525 1.1533 -7.0577 0
M  V30 8 Pb -1.2790 -0.1613 -7.5979 0
M  V30 9 Pb -2.8553 1.0144 -7.3045 0
M  V30 10 Pb -2.6108 -0.1964 -7.9527 0
M  V30 11 Pd 0.0351 4.1505 6.0646 0
M  V30 12 Pb -0.8058 3.6583 6.2497 0
M  V30 13 Pb -0.4669 4.8588 5.5788 0
M  V30 14 Pb 0.8403 4.6927 5.8328 0
M  V30 15 Pb 0.5790 3.3479 6.3835 0
M  V30 16 Pd 5.0673 4.7712 0.9474 0
M  V30 17 Pb 4.7233 5.5088 1.5186 0
M  V30 18 Pb 5.7313 4.6309 1.6679 0
M  V30 19 Pb 4.4309 5.0109 0.2079 0
M  V30 20 Pb 5.3446 3.8854 0.5211 0
M  V30 21 Pd -0.4003 4.7972 -1.1464 0
M  V30 22 Pb -0.2664 4.3727 -2.0418 0
M  V30 23 Pb -0.5631 5.2758 -0.2841 0
M  V30 24 Pb 0.5289 5.1639 -1.2400 0
M  V30 25 Pb -1.3143 4.4007 -1.0327 0
M  V30 26 Pd 5.5782 -0.9614 2.2160 0
M  V30 27 Pb 6.1284 -0.4391 2.8522 0
M  V30 28 Pb 5.3659 -1.5868 2.9656 0
M  V30 29 Pb 5.1014 -1.5776 1.5905 0
M  V30 30 Pb 5.7121 -0.2443 1.4958 0
M  V30 31 Pd 1.0911 -1.7271 5.3657 0
M  V30 32 Pb 0.8149 -2.6100 4.9849 0
M  V30 33 Pb 2.0530 -1.9983 5.2697 0
M  V30 34 Pb 1.3362 -0.8253 5.7843 0
M  V30 35 Pb 0.1314 -1.5262 5.5130 0
M  V30 36 Pd -6.0705 -0.6073 -1.7665 0
M  V30 37 Pb -5.7370 0.2383 -1.3477 0
M  V30 38 Pb -6.3495 -1.4725 -2.1818 0
M  V30 39 Pb -6.1827 -0.0864 -2.6149 0
M  V30 40 Pb -5.8821 -1.1607 -0.9543 0
M  V30 41 Pd -2.5620 -5.8119 -4.9870 0
M  V30 42 Pb -1.7081 -5.4959 -5.4064 0
M  V30 43 Pb -2.0906 -6.1549 -4.1733 0
M  V30 44 Pb -3.4591 -5.9245 -4.5680 0
M  V30 45 Pb -3.0274 -5.4571 -5.7915 0
M  V30 46 Ag -1.0139 1.6221 -6.6730 0
M  V30 47 Fe -0.5994 2.8576 -4.6883 0
M  V30 48 Ag -0.1232 4.1153 -2.7317 0
M  V30 49 Ag -1.9967 4.1245 -0.8751 0
M  V30 50 Fe -3.7202 2.4915 -0.9948 0
M  V30 51 Ag -5.4758 0.8909 -1.0833 0
M  V30 52 Ag 6.1908 4.4423 2.2116 0
M  V30 53 Fe 6.7320 2.3633 3.1547 0
M  V30 54 Ag 6.5227 0.0291 3.2612 0
M  V30 55 Ag -3.0029 -0.7873 -8.1731 0
M  V30 56 Fe -3.3370 -3.0193 -7.4664 0
M  V30 57 Ag -3.3351 -5.1190 -6.3781 0
M  V30 58 Ag -0.8098 -0.7495 -7.5573 0
M  V30 59 Fe -0.7804 -2.9761 -6.7174 0
M  V30 60 Ag -1.1561 -5.1200 -5.7548 0
M  V30 61 Ag -1.3662 3.1850 6.3289 0
M  V30 62 Fe -1.4482 0.8479 6.0837 0
M  V30 63 Ag -0.5505 -1.2842 5.6607 0
M  V30 64 Ag 1.3564 5.1704 5.5750 0
M  V30 65 Fe 2.9325 5.6875 3.8799 0
M  V30 66 Ag 4.4569 5.9213 2.0787 0
M  V30 67 Ag -3.5040 1.2746 -7.0350 0
M  V30 68 Fe -4.9549 0.9136 -5.1887 0
M  V30 69 Ag -6.1842 0.3305 -3.2408 0
M  V30 70 Ag 1.0090 -4.8532 0.2891 0
M  V30 71 Fe 2.9202 -3.5063 0.6989 0
M  V30 72 Ag 4.7824 -2.1130 1.1739 0
M  V30 73 Ag -2.3562 -4.6935 1.0165 0
M  V30 74 Fe -4.0989 -3.2111 0.3735 0
M  V30 75 Ag -5.7188 -1.6641 -0.4210 0
M  V30 76 Ag -6.4799 -2.1728 -2.4159 0
M  V30 77 Fe -5.4688 -4.1088 -3.3441 0
M  V30 78 Ag -4.1503 -5.8351 -4.2993 0
M  V30 79 Ag -0.7451 5.3412 5.0840 0
M  V30 80 Fe -0.8213 5.5987 2.7274 0
M  V30 81 Ag -0.7528 5.6169 0.3562 0
M  V30 82 Ba -0.3331 -4.7966 2.3895 0
M  V30 83 Ga 0.1361 -3.9601 3.5130 0
M  V30 84 Ba 0.5803 -3.2822 4.7485 0
M  V30 85 Ba 3.9979 5.2757 -0.3506 0
M  V30 86 Ga 2.5914 5.3044 -0.8104 0
M  V30 87 Ba 1.2277 5.4105 -1.3761 0
M  V30 88 Ba 1.0101 2.7444 6.5939 0
M  V30 89 Ga 1.2067 1.2820 6.3147 0
M  V30 90 Ba 1.5329 -0.1746 6.1530 0
M  V30 91 Ba 5.5534 3.1983 0.2364 0
M  V30 92 Ga 5.6576 1.7567 0.6532 0
M  V30 93 Ba 5.8093 0.2883 0.9415 0
M  V30 94 Ba -0.8733 -5.9133 -0.8088 0
M  V30 95 Ga -1.3463 -6.0812 -2.1994 0
M  V30 96 Ba -1.7296 -6.4429 -3.5814 0
M  V30 97 Ba 5.1797 -2.0116 3.5541 0
M  V30 98 Ga 3.9585 -2.1293 4.3777 0
M  V30 99 Ba 2.7549 -2.2705 5.2230 0
M  V30 END ATOM
M  V30 BEGIN BOND
M  V30 1 1 1 2
M  V30 2 1 1 3
M  V30 3 1 1 4
M  V30 4 1 1 5
M  V30 5 1 6 7
M  V30 6 1 6 8
M  V30 7 1 6 9
M  V30 8 1 6 10
M  V30 9 1 11 12
M  V30 10 1 11 13
M  V30 11 1 11 14
M  V30 12 1 11 15
M  V30 13 1 16 17
M  V30 14 1 16 18
M  V30 15 1 16 19
M  V30 16 1 16 20
M  V30 17 1 21 22
M  V30 18 1 21 23
M  V30 19 1 21 24
M  V30 20 1 21 25
M  V30 21 1 26 27
M  V30 22 1 26 28
M  V30 23 1 26 29
M  V30 24 1 26 30
M  V30 25 1 31 32
M  V30 26 1 31 33
M  V30 27 1 31 34
M  V30 28 1 31 35
M  V30 29 1 36 37
M  V30 30 1 36 38
M  V30 31 1 36 39
M  V30 32 1 36 40
M  V30 33 1 41 42
M  V30 34 1 41 43
M  V30 35 1 41 44
M  V30 36 1 41 45
M  V30 37 1 46 47
M  V30 38 1 47 48
M  V30 39 1 49 50
M  V30 40 1 50 51
M  V30 41 1 52 53
M  V30 42 1 53 54
M  V30 43 1 55 56
M  V30 44 1 56 57
M  V30 45 1 58 59
M  V30 46 1 59 60
M  V30 47 1 61 62
M  V30 48 1 62 63
M  V30 49 1 64 65
M  V30 50 1 65 66
M  V30 51 1 67 68
M  V30 52 1 68 69
M  V30 53 1 70 71
M  V30 54 1 71 72
M  V30 55 1 73 74
M  V30 56 1 74 75
M  V30 57 1 76 77
M  V30 58 1 77 78
M  V30 59 1 79 80
M  V30 60 1 80 81
M  V30 61 1 82 83
M  V30 62 1 83 84
M  V30 63 1 85 86
M  V30 64 1 86 87
M  V30 65 1 88 89
M  V30 66 1 89 90
M  V30 67 1 91 92
M  V30 68 1 92 93
M  V30 69 1 94 95
M  V30 70 1 95 96
M  V30 71 1 97 98
M  V30 72 1 98 99
M  V30 73 1 2 82
M  V30 74 1 3 94
M  V30 75 1 4 70
M  V30 76 1 5 73
M  V30 77 1 7 46
M  V30 78 1 8 58
M  V30 79 1 9 67
M  V30 80 1 10 55
M  V30 81 1 12 61
M  V30 82 1 13 79
M  V30 83 1 14 64
M  V30 84 1 15 88
M  V30 85 1 17 66
M  V30 86 1 18 52
M  V30 87 1 19 85
M  V30 88 1 20 91
M  V30 89 1 22 48
M  V30 90 1 23 81
M  V30 91 1 24 87
M  V30 92 1 25 49
M  V30 93 1 27 54
M  V30 94 1 28 97
M  V30 95 1 29 72
M  V30 96 1 30 93
M  V30 97 1 32 84
M  V30 98 1 33 99
M  V30 99 1 34 90
M  V30 100 1 35 63
M  V30 101 1 37 51
M  V30 102 1 38 76
M  V30 103 1 39 69
M  V30 104 1 40 75
M  V30 105 1 42 60
M  V30 106 1 43 96
M  V30 107 1 44 78
M  V30 108 1 45 57
M  V30 END BOND
M  V30 END CTAB
M  END

$$$$
