
     RDKit          3D

  0  0  0  0  0  0  0  0  0  0999 V3000
M  V30 BEGIN CTAB
M  V30 COUNTS 99 108 0 0 0
M  V30 BEGIN ATOM
M  V30 1 Pd -4.5600 7.8593 -3.6008 0
M  V30 2 Pb -4.8092 6.9565 -3.9540 0
M  V30 3 Pb -3.8385 7.9654 -4.2786 0
M  V30 4 Pb -4.1978 8.6540 -3.1164 0
M  V30 5 Pb -5.1949 7.7057 -2.8548 0
M  V30 6 Pd 1.1706 -7.1830 4.8754 0
M  V30 7 Pb 0.1596 -7.2539 4.8589 0
M  V30 8 Pb 2.0459 -6.7206 4.7331 0
M  V30 9 Pb 1.1242 -6.7975 5.7954 0
M  V30 10 Pb 1.2263 -7.5861 3.9619 0
M  V30 11 Pd 4.6991 -6.8745 0.7788 0
M  V30 12 Pb 4.6757 -6.4404 1.6789 0
M  V30 13 Pb 5.5263 -6.3294 0.6025 0
M  V30 14 Pb 3.8559 -7.3864 0.9436 0
M  V30 15 Pb 4.6983 -7.0818 -0.1990 0
M  V30 16 Pd 0.7649 -1.4874 -1.1574 0
M  V30 17 Pb 1.4451 -0.7875 -1.3762 0
M  V30 18 Pb 0.9645 -1.3779 -0.1918 0
M  V30 19 Pb 0.3988 -1.4255 -2.0792 0
M  V30 20 Pb 0.1018 -2.2033 -0.9379 0
M  V30 21 Pd -2.7952 2.2870 -3.1805 0
M  V30 22 Pb -2.2479 1.4451 -3.2510 0
M  V30 23 Pb -3.4959 1.8278 -2.6275 0
M  V30 24 Pb -3.4284 3.0485 -3.3787 0
M  V30 25 Pb -1.9956 2.7803 -3.5202 0
M  V30 26 Pd 5.9380 -1.7483 -0.9567 0
M  V30 27 Pb 5.8860 -2.1685 -1.8623 0
M  V30 28 Pb 5.8633 -1.5271 0.0152 0
M  V30 29 Pb 6.4517 -2.5643 -0.6718 0
M  V30 30 Pb 5.3726 -0.9707 -1.2293 0
M  V30 31 Pd -1.5796 -3.2471 3.3936 0
M  V30 32 Pb -1.5643 -2.9492 4.3466 0
M  V30 33 Pb -1.6089 -3.5303 2.4349 0
M  V30 34 Pb -0.7864 -2.6674 3.2066 0
M  V30 35 Pb -2.0405 -4.1053 3.6739 0
M  V30 36 Pd -0.5500 6.9393 -1.7456 0
M  V30 37 Pb -0.5574 6.6292 -0.7857 0
M  V30 38 Pb -0.2091 6.0769 -2.1215 0
M  V30 39 Pb -0.9533 7.8143 -1.4733 0
M  V30 40 Pb -0.5697 7.2573 -2.6933 0
M  V30 41 Pd -3.1177 3.3529 1.5664 0
M  V30 42 Pb -2.4171 2.7167 1.8811 0
M  V30 43 Pb -3.6732 2.6123 1.1756 0
M  V30 44 Pb -3.8463 3.9871 1.3324 0
M  V30 45 Pb -2.4937 4.1117 1.7667 0
M  V30 46 Ag 2.4810 -6.1420 4.5374 0
M  V30 47 Fe 1.6582 -4.0518 3.7669 0
M  V30 48 Ag -0.0527 -2.5162 3.1717 0
M  V30 49 Ag 0.9484 -1.1418 0.5100 0
M  V30 50 Fe -0.3688 0.5238 1.5535 0
M  V30 51 Ag -1.8880 2.2478 2.1231 0
M  V30 52 Ag 4.7180 -5.9084 2.2031 0
M  V30 53 Fe 5.2133 -3.6071 1.9201 0
M  V30 54 Ag 5.7551 -1.6176 0.7500 0
M  V30 55 Ag 0.9924 -6.3821 6.3961 0
M  V30 56 Fe -0.2424 -4.3830 6.4150 0
M  V30 57 Ag -1.4547 -2.8789 5.0772 0
M  V30 58 Ag 4.7557 -6.9812 -0.9381 0
M  V30 59 Fe 5.2620 -4.9839 -2.1109 0
M  V30 60 Ag 5.7931 -2.6902 -2.3904 0
M  V30 61 Ag -5.5608 7.5026 -2.2443 0
M  V30 62 Fe -5.1677 6.0216 -0.4445 0
M  V30 63 Ag -4.3951 4.4542 1.1481 0
M  V30 64 Ba -0.5743 6.4615 -0.0458 0
M  V30 65 Ga -1.2889 5.5552 0.8867 0
M  V30 66 Ba -1.9841 4.6613 1.8453 0
M  V30 67 Ba -3.2167 8.0291 -4.6838 0
M  V30 68 Ga -1.8710 7.7801 -4.1491 0
M  V30 69 Ba -0.6393 7.4793 -3.4056 0
M  V30 70 Ba -3.9583 1.5175 -2.1175 0
M  V30 71 Ga -4.0601 1.7678 -0.6583 0
M  V30 72 Ba -4.0735 2.1018 0.7876 0
M  V30 73 Ba -1.3283 3.1003 -3.6460 0
M  V30 74 Ga -0.6527 4.2948 -3.0979 0
M  V30 75 Ba 0.0103 5.4918 -2.5400 0
M  V30 76 Ba -4.9902 6.2497 -4.1363 0
M  V30 77 Ga -4.4167 4.9079 -3.8649 0
M  V30 78 Ba -3.9618 3.5101 -3.6643 0
M  V30 79 Ba -0.3851 -2.7490 -0.7705 0
M  V30 80 Ga -1.0128 -3.2413 0.4704 0
M  V30 81 Ba -1.6391 -3.7313 1.7129 0
M  V30 82 Ba 0.0471 -1.2952 -2.7232 0
M  V30 83 Ga -0.9104 -0.2231 -3.0706 0
M  V30 84 Ba -1.8749 0.8230 -3.4719 0
M  V30 85 Ba 6.1477 -5.9193 0.4700 0
M  V30 86 Ga 6.4657 -4.5474 0.0055 0
M  V30 87 Ba 6.8251 -3.1846 -0.4555 0
M  V30 88 Ba 1.2764 -7.8992 3.2821 0
M  V30 89 Ga 2.2453 -7.8296 2.1720 0
M  V30 90 Ba 3.2158 -7.7584 1.0634 0
M  V30 91 Ba 1.9726 -0.2782 -1.5349 0
M  V30 92 Ga 3.4461 -0.3126 -1.4914 0
M  V30 93 Ba 4.9161 -0.4103 -1.4267 0
M  V30 94 Ba -0.6002 -7.1606 4.7956 0
M  V30 95 Ga -1.4458 -5.9986 4.3570 0
M  V30 96 Ba -2.2446 -4.8072 3.9100 0
M  V30 97 Ba -3.8445 9.1542 -2.6852 0
M  V30 98 Ga -2.5734 8.9133 -1.9763 0
M  V30 99 Ba -1.3067 8.4683 -1.3646 0
M  V30 END ATOM
M  V30 BEGIN BOND
M  V30 1 1 1 2
M  V30 2 1 1 3
M  V30 3 1 1 4
M  V30 4 1 1 5
M  V30 5 1 6 7
M  V30 6 1 6 8
M  V30 7 1 6 9
M  V30 8 1 6 10
M  V30 9 1 11 12
M  V30 10 1 11 13
M  V30 11 1 11 14
M  V30 12 1 11 15
M  V30 13 1 16 17
M  V30 14 1 16 18
M  V30 15 1 16 19
M  V30 16 1 16 20
M  V30 17 1 21 22
M  V30 18 1 21 23
M  V30 19 1 21 24
M  V30 20 1 21 25
M  V30 21 1 26 27
M  V30 22 1 26 28
M  V30 23 1 26 29
M  V30 24 1 26 30
M  V30 25 1 31 32
M  V30 26 1 31 33
M  V30 27 1 31 34
M  V30 28 1 31 35
M  V30 29 1 36 37
M  V30 30 1 36 38
M  V30 31 1 36 39
M  V30 32 1 36 40
M  V30 33 1 41 42
M  V30 34 1 41 43
M  V30 35 1 41 44
M  V30 36 1 41 45
M  V30 37 1 46 47
M  V30 38 1 47 48
M  V30 39 1 49 50
M  V30 40 1 50 51
M  V30 41 1 52 53
M  V30 42 1 53 54
M  V30 43 1 55 56
M  V30 44 1 56 57
M  V30 45 1 58 59
M  V30 46 1 59 60
M  V30 47 1 61 62
M  V30 48 1 62 63
M  V30 49 1 64 65
M  V30 50 1 65 66
M  V30 51 1 67 68
M  V30 52 1 68 69
M  V30 53 1 70 71
M  V30 54 1 71 72
M  V30 55 1 73 74
M  V30 56 1 74 75
M  V30 57 1 76 77
M  V30 58 1 77 78
M  V30 59 1 79 80
M  V30 60 1 80 81
M  V30 61 1 82 83
M  V30 62 1 83 84
M  V30 63 1 85 86
M  V30 64 1 86 87
M  V30 65 1 88 89
M  V30 66 1 89 90
M  V30 67 1 91 92
M  V30 68 1 92 93
M  V30 69 1 94 95
M  V30 70 1 95 96
M  V30 71 1 97 98
M  V30 72 1 98 99
M  V30 73 1 2 76
M  V30 74 1 3 67
M  V30 75 1 4 97
M  V30 76 1 5 61
M  V30 77 1 7 94
M  V30 78 1 8 46
M  V30 79 1 9 55
M  V30 80 1 10 88
M  V30 81 1 12 52
M  V30 82 1 13 85
M  V30 83 1 14 90
M  V30 84 1 15 58
M  V30 85 1 17 91
M  V30 86 1 18 49
M  V30 87 1 19 82
M  V30 88 1 20 79
M  V30 89 1 22 84
M  V30 90 1 23 70
M  V30 91 1 24 78
M  V30 92 1 25 73
M  V30 93 1 27 60
M  V30 94 1 28 54
M  V30 95 1 29 87
M  V30 96 1 30 93
M  V30 97 1 32 57
M  V30 98 1 33 81
M  V30 99 1 34 48
M  V30 100 1 35 96
M  V30 101 1 37 64
M  V30 102 1 38 75
M  V30 103 1 39 99
M  V30 104 1 40 69
M  V30 105 1 42 51
M  V30 106 1 43 72
M  V30 107 1 44 63
M  V30 108 1 45 66
M  V30 END BOND
M  V30 END CTAB
M  END

$$$$
