
     RDKit          3D

  0  0  0  0  0  0  0  0  0  0999 V3000
M  V30 BEGIN CTAB
M  V30 COUNTS 99 108 0 0 0
M  V30 BEGIN ATOM
M  V30 1 Pd -0.2086 3.5102 1.4979 0
M  V30 2 Pb 0.2588 3.6241 0.6225 0
M  V30 3 Pb 0.3289 4.2893 1.8115 0
M  V30 4 Pb -0.6943 2.7092 1.1522 0
M  V30 5 Pb -0.6313 3.3642 2.3934 0
M  V30 6 Pd -5.3271 0.5920 0.8695 0
M  V30 7 Pb -6.2832 0.3071 0.8654 0
M  V30 8 Pb -5.1801 -0.0006 1.6603 0
M  V30 9 Pb -4.3395 0.7188 0.7682 0
M  V30 10 Pb -5.4901 1.0883 0.0193 0
M  V30 11 Pd -5.6511 -3.8174 -0.0975 0
M  V30 12 Pb -4.7645 -4.2751 -0.1409 0
M  V30 13 Pb -5.5069 -3.6263 0.8728 0
M  V30 14 Pb -5.7305 -3.9076 -1.0911 0
M  V30 15 Pb -6.5096 -3.3051 -0.0389 0
M  V30 16 Pd 1.5241 1.0214 -5.5072 0
M  V30 17 Pb 0.7920 1.6100 -5.8398 0
M  V30 18 Pb 2.3006 0.4614 -5.2134 0
M  V30 19 Pb 1.1765 0.2926 -6.1039 0
M  V30 20 Pb 1.7832 1.7340 -4.8606 0
M  V30 21 Pd 1.9641 -3.9766 1.8175 0
M  V30 22 Pb 1.4500 -3.5295 2.5776 0
M  V30 23 Pb 2.4818 -4.3291 1.0376 0
M  V30 24 Pb 1.1171 -4.2618 1.3681 0
M  V30 25 Pb 2.8167 -3.7775 2.2839 0
M  V30 26 Pd -3.3781 -0.1045 -6.1921 0
M  V30 27 Pb -2.6197 -0.5920 -6.6325 0
M  V30 28 Pb -2.9378 0.7551 -6.4325 0
M  V30 29 Pb -3.8279 -0.9565 -5.9165 0
M  V30 30 Pb -4.0542 0.4148 -5.6735 0
M  V30 31 Pd 4.6504 3.3423 3.0521 0
M  V30 32 Pb 5.1452 2.5671 3.4193 0
M  V30 33 Pb 4.3913 3.5894 3.9844 0
M  V30 34 Pb 4.8458 3.0238 2.0966 0
M  V30 35 Pb 4.1142 4.1270 2.7444 0
M  V30 36 Pd 1.4227 0.6654 5.6313 0
M  V30 37 Pb 1.8195 1.5200 5.9655 0
M  V30 38 Pb 2.3050 0.2333 5.7694 0
M  V30 39 Pb 0.5570 1.1394 5.4630 0
M  V30 40 Pb 1.0581 -0.2118 5.2561 0
M  V30 41 Pd 4.8521 -1.1284 -1.0689 0
M  V30 42 Pb 4.6368 -0.9429 -2.0316 0
M  V30 43 Pb 4.9779 -0.1378 -0.8352 0
M  V30 44 Pb 5.1614 -1.3782 -0.1626 0
M  V30 45 Pb 4.6923 -2.1015 -1.2365 0
M  V30 46 Ag 5.4511 1.9225 3.6018 0
M  V30 47 Fe 5.6607 -0.0835 2.3974 0
M  V30 48 Ag 5.4189 -1.4772 0.5211 0
M  V30 49 Ag -4.0857 -4.5893 -0.1753 0
M  V30 50 Fe -1.7927 -4.5398 0.4400 0
M  V30 51 Ag 0.5088 -4.5365 1.0249 0
M  V30 52 Ag -5.6234 1.3794 -0.6566 0
M  V30 53 Fe -5.1332 1.1886 -2.9698 0
M  V30 54 Ag -4.4953 0.8190 -5.2247 0
M  V30 55 Ag 0.6546 3.7183 -0.0064 0
M  V30 56 Fe 1.3075 3.0209 -2.1782 0
M  V30 57 Ag 1.9054 2.2589 -4.3440 0
M  V30 58 Ag 3.3837 -3.5751 2.7123 0
M  V30 59 Fe 3.6265 -1.9345 4.3815 0
M  V30 60 Ag 2.9383 -0.1456 5.7458 0
M  V30 61 Ag -5.7231 -3.9251 -1.8419 0
M  V30 62 Fe -4.9886 -2.8041 -3.8051 0
M  V30 63 Ag -4.1893 -1.5692 -5.6723 0
M  V30 64 Ba 0.2431 2.0374 -6.1106 0
M  V30 65 Ga -1.1773 1.7645 -6.3637 0
M  V30 66 Ba -2.5816 1.3931 -6.5782 0
M  V30 67 Ba 0.8001 4.8495 1.9633 0
M  V30 68 Ga 2.2373 4.8280 2.2857 0
M  V30 69 Ba 3.6710 4.7150 2.6049 0
M  V30 70 Ba 2.9149 0.0659 -5.0382 0
M  V30 71 Ga 3.6762 -0.3804 -3.8521 0
M  V30 72 Ba 4.5502 -0.9002 -2.7794 0
M  V30 73 Ba -0.9431 3.2066 3.0584 0
M  V30 74 Ga -0.5222 2.3746 4.2037 0
M  V30 75 Ba -0.0684 1.5341 5.3302 0
M  V30 76 Ba 0.8541 -0.2392 -6.5310 0
M  V30 77 Ga -0.5641 -0.6039 -6.7556 0
M  V30 78 Ba -2.0033 -0.9088 -6.9292 0
M  V30 79 Ba 4.1388 3.7303 4.6751 0
M  V30 80 Ga 3.1542 2.9847 5.4788 0
M  V30 81 Ba 2.1602 2.1525 6.1796 0
M  V30 82 Ba -5.1055 -0.5257 2.1891 0
M  V30 83 Ga -5.2239 -1.9804 1.9899 0
M  V30 84 Ba -5.3788 -3.3837 1.5698 0
M  V30 85 Ba 2.8776 -4.5325 0.4336 0
M  V30 86 Ga 3.7265 -3.7304 -0.4680 0
M  V30 87 Ba 4.5501 -2.8353 -1.3030 0
M  V30 88 Ba -6.9499 -0.0243 0.7966 0
M  V30 89 Ga -7.1433 -1.4384 0.4285 0
M  V30 90 Ba -7.1108 -2.8647 0.0564 0
M  V30 91 Ba 4.9946 2.8125 1.3655 0
M  V30 92 Ga 5.0102 1.6498 0.4104 0
M  V30 93 Ba 5.0856 0.6134 -0.6780 0
M  V30 94 Ba -1.0148 2.0891 0.8822 0
M  V30 95 Ga -2.3466 1.4613 0.7956 0
M  V30 96 Ba -3.6017 0.7056 0.6277 0
M  V30 97 Ba 1.0370 -3.2030 3.1399 0
M  V30 98 Ga 0.9765 -2.0049 4.0397 0
M  V30 99 Ba 0.7637 -0.8795 5.0075 0
M  V30 END ATOM
M  V30 BEGIN BOND
M  V30 1 1 1 2
M  V30 2 1 1 3
M  V30 3 1 1 4
M  V30 4 1 1 5
M  V30 5 1 6 7
M  V30 6 1 6 8
M  V30 7 1 6 9
M  V30 8 1 6 10
M  V30 9 1 11 12
M  V30 10 1 11 13
M  V30 11 1 11 14
M  V30 12 1 11 15
M  V30 13 1 16 17
M  V30 14 1 16 18
M  V30 15 1 16 19
M  V30 16 1 16 20
M  V30 17 1 21 22
M  V30 18 1 21 23
M  V30 19 1 21 24
M  V30 20 1 21 25
M  V30 21 1 26 27
M  V30 22 1 26 28
M  V30 23 1 26 29
M  V30 24 1 26 30
M  V30 25 1 31 32
M  V30 26 1 31 33
M  V30 27 1 31 34
M  V30 28 1 31 35
M  V30 29 1 36 37
M  V30 30 1 36 38
M  V30 31 1 36 39
M  V30 32 1 36 40
M  V30 33 1 41 42
M  V30 34 1 41 43
M  V30 35 1 41 44
M  V30 36 1 41 45
M  V30 37 1 46 47
M  V30 38 1 47 48
M  V30 39 1 49 50
M  V30 40 1 50 51
M  V30 41 1 52 53
M  V30 42 1 53 54
M  V30 43 1 55 56
M  V30 44 1 56 57
M  V30 45 1 58 59
M  V30 46 1 59 60
M  V30 47 1 61 62
M  V30 48 1 62 63
M  V30 49 1 64 65
M  V30 50 1 65 66
M  V30 51 1 67 68
M  V30 52 1 68 69
M  V30 53 1 70 71
M  V30 54 1 71 72
M  V30 55 1 73 74
M  V30 56 1 74 75
M  V30 57 1 76 77
M  V30 58 1 77 78
M  V30 59 1 79 80
M  V30 60 1 80 81
M  V30 61 1 82 83
M  V30 62 1 83 84
M  V30 63 1 85 86
M  V30 64 1 86 87
M  V30 65 1 88 89
M  V30 66 1 89 90
M  V30 67 1 91 92
M  V30 68 1 92 93
M  V30 69 1 94 95
M  V30 70 1 95 96
M  V30 71 1 97 98
M  V30 72 1 98 99
M  V30 73 1 2 55
M  V30 74 1 3 67
M  V30 75 1 4 94
M  V30 76 1 5 73
M  V30 77 1 7 88
M  V30 78 1 8 82
M  V30 79 1 9 96
M  V30 80 1 10 52
M  V30 81 1 12 49
M  V30 82 1 13 84
M  V30 83 1 14 61
M  V30 84 1 15 90
M  V30 85 1 17 64
M  V30 86 1 18 70
M  V30 87 1 19 76
M  V30 88 1 20 57
M  V30 89 1 22 97
M  V30 90 1 23 85
M  V30 91 1 24 51
M  V30 92 1 25 58
M  V30 93 1 27 78
M  V30 94 1 28 66
M  V30 95 1 29 63
M  V30 96 1 30 54
M  V30 97 1 32 46
M  V30 98 1 33 79
M  V30 99 1 34 91
M  V30 100 1 35 69
M  V30 101 1 37 81
M  V30 102 1 38 60
M  V30 103 1 39 75
M  V30 104 1 40 99
M  V30 105 1 42 72
M  V30 106 1 43 93
M  V30 107 1 44 48
M  V30 108 1 45 87
M  V30 END BOND
M  V30 END CTAB
M  END

$$$$
