
     RDKit          3D

  0  0  0  0  0  0  0  0  0  0999 V3000
M  V30 BEGIN CTAB
M  V30 COUNTS 99 108 0 0 0
M  V30 BEGIN ATOM
M  V30 1 Pd -1.8056 -5.9363 -2.9182 0
M  V30 2 Pb -2.7217 -5.7280 -2.5751 0
M  V30 3 Pb -1.4326 -5.9588 -1.9695 0
M  V30 4 Pb -0.9027 -6.1228 -3.2836 0
M  V30 5 Pb -2.1313 -5.8033 -3.8524 0
M  V30 6 Pd 5.5279 0.6833 1.6820 0
M  V30 7 Pb 5.5221 1.6514 1.9254 0
M  V30 8 Pb 5.4294 0.4317 2.6416 0
M  V30 9 Pb 5.5775 -0.2956 1.4866 0
M  V30 10 Pb 5.6517 0.9355 0.7202 0
M  V30 11 Pd -3.4410 2.1513 2.8045 0
M  V30 12 Pb -3.9769 2.4864 2.0265 0
M  V30 13 Pb -2.9698 1.7899 3.6097 0
M  V30 14 Pb -4.0148 1.3351 2.8362 0
M  V30 15 Pb -2.8960 2.9942 2.7815 0
M  V30 16 Pd -6.4097 -0.3448 -0.8060 0
M  V30 17 Pb -6.2877 0.6346 -0.6381 0
M  V30 18 Pb -6.4343 -1.3299 -0.9699 0
M  V30 19 Pb -6.2659 -0.5232 0.1645 0
M  V30 20 Pb -6.5347 -0.1719 -1.7826 0
M  V30 21 Pd 2.8059 3.0181 -2.7966 0
M  V30 22 Pb 2.7799 2.2734 -3.4661 0
M  V30 23 Pb 2.7880 3.8007 -2.1719 0
M  V30 24 Pb 1.9424 3.3305 -3.1893 0
M  V30 25 Pb 3.6881 2.6896 -2.4500 0
M  V30 26 Pd 1.8256 4.6642 2.5921 0
M  V30 27 Pb 1.9372 5.0146 1.6616 0
M  V30 28 Pb 1.7584 4.3510 3.5381 0
M  V30 29 Pb 2.8167 4.5519 2.6294 0
M  V30 30 Pb 0.8344 4.8137 2.5694 0
M  V30 31 Pd 2.4181 -4.1574 1.0481 0
M  V30 32 Pb 2.0405 -3.9099 1.9461 0
M  V30 33 Pb 1.5430 -4.6315 0.8180 0
M  V30 34 Pb 2.8056 -4.4561 0.1856 0
M  V30 35 Pb 3.3086 -3.7378 1.2301 0
M  V30 36 Pd -2.3908 0.0161 -6.8895 0
M  V30 37 Pb -3.3713 0.1290 -6.7465 0
M  V30 38 Pb -2.5363 -0.9490 -7.1014 0
M  V30 39 Pb -2.2322 0.9513 -6.5797 0
M  V30 40 Pb -1.3976 -0.1061 -6.8858 0
M  V30 41 Pd 1.3748 -0.1149 5.1631 0
M  V30 42 Pb 0.3898 0.0234 5.2595 0
M  V30 43 Pb 2.3659 -0.2295 5.1486 0
M  V30 44 Pb 1.2496 -1.0728 4.8926 0
M  V30 45 Pb 1.4922 0.8353 5.4449 0
M  V30 46 Ag -0.1880 -6.1847 -3.4570 0
M  V30 47 Fe 1.7591 -5.5794 -2.2845 0
M  V30 48 Ag 2.9961 -4.7233 -0.4759 0
M  V30 49 Ag -2.3345 -5.6124 -4.5467 0
M  V30 50 Fe -2.5421 -3.7371 -5.9854 0
M  V30 51 Ag -2.6470 -1.6857 -7.1732 0
M  V30 52 Ag 2.6910 1.7558 -4.0043 0
M  V30 53 Fe 1.1101 0.7245 -5.4490 0
M  V30 54 Ag -0.6561 -0.1521 -6.7762 0
M  V30 55 Ag 1.3044 3.5138 -3.5350 0
M  V30 56 Fe -0.4418 2.6892 -4.9135 0
M  V30 57 Ag -2.0551 1.6132 -6.2802 0
M  V30 58 Ag -3.4137 -5.5494 -2.3470 0
M  V30 59 Fe -4.9490 -3.8554 -1.7054 0
M  V30 60 Ag -6.3832 -2.0690 -1.0808 0
M  V30 61 Ag -6.5946 -0.0503 -2.5196 0
M  V30 62 Fe -5.4495 0.0997 -4.5927 0
M  V30 63 Ag -4.0834 0.1975 -6.5304 0
M  V30 64 Ba 5.5398 2.3726 2.1243 0
M  V30 65 Ga 4.5422 3.4244 2.3833 0
M  V30 66 Ba 3.5623 4.4914 2.6472 0
M  V30 67 Ba -1.1837 -5.9667 -1.2416 0
M  V30 68 Ga -0.0996 -5.4511 -0.3442 0
M  V30 69 Ba 0.8936 -5.0279 0.6953 0
M  V30 70 Ba 2.7210 4.4253 -1.7589 0
M  V30 71 Ga 2.3977 4.8219 -0.3737 0
M  V30 72 Ba 2.0829 5.3064 0.9854 0
M  V30 73 Ba -2.7084 1.4577 4.2302 0
M  V30 74 Ga -1.4863 0.8266 4.7638 0
M  V30 75 Ba -0.3304 0.1713 5.4052 0
M  V30 76 Ba -4.4546 0.7306 2.8687 0
M  V30 77 Ga -5.3015 0.0262 1.8929 0
M  V30 78 Ba -6.1372 -0.6517 0.8892 0
M  V30 79 Ba 1.7355 4.1314 4.2536 0
M  V30 80 Ga 1.6449 2.8394 4.9549 0
M  V30 81 Ba 1.5542 1.5493 5.6596 0
M  V30 82 Ba -2.5494 3.6622 2.7373 0
M  V30 83 Ga -1.1967 4.2551 2.6591 0
M  V30 84 Ba 0.0974 4.9665 2.5758 0
M  V30 85 Ba 5.3632 0.2088 3.3515 0
M  V30 86 Ga 4.2329 -0.0395 4.2606 0
M  V30 87 Ba 3.1107 -0.2917 5.1784 0
M  V30 88 Ba -4.4120 2.7257 1.4612 0
M  V30 89 Ga -5.2825 2.0568 0.4719 0
M  V30 90 Ba -6.1445 1.3600 -0.5055 0
M  V30 91 Ba 5.6513 -1.0392 1.4248 0
M  V30 92 Ga 4.7853 -2.2323 1.3510 0
M  V30 93 Ba 4.0166 -3.4902 1.2770 0
M  V30 94 Ba 5.7772 1.1497 0.0105 0
M  V30 95 Ga 5.0294 1.7879 -1.0936 0
M  V30 96 Ba 4.3634 2.4218 -2.2512 0
M  V30 97 Ba 1.7234 -3.8004 2.6224 0
M  V30 98 Ga 1.4686 -2.7506 3.6340 0
M  V30 99 Ba 1.1497 -1.7994 4.7221 0
M  V30 END ATOM
M  V30 BEGIN BOND
M  V30 1 1 1 2
M  V30 2 1 1 3
M  V30 3 1 1 4
M  V30 4 1 1 5
M  V30 5 1 6 7
M  V30 6 1 6 8
M  V30 7 1 6 9
M  V30 8 1 6 10
M  V30 9 1 11 12
M  V30 10 1 11 13
M  V30 11 1 11 14
M  V30 12 1 11 15
M  V30 13 1 16 17
M  V30 14 1 16 18
M  V30 15 1 16 19
M  V30 16 1 16 20
M  V30 17 1 21 22
M  V30 18 1 21 23
M  V30 19 1 21 24
M  V30 20 1 21 25
M  V30 21 1 26 27
M  V30 22 1 26 28
M  V30 23 1 26 29
M  V30 24 1 26 30
M  V30 25 1 31 32
M  V30 26 1 31 33
M  V30 27 1 31 34
M  V30 28 1 31 35
M  V30 29 1 36 37
M  V30 30 1 36 38
M  V30 31 1 36 39
M  V30 32 1 36 40
M  V30 33 1 41 42
M  V30 34 1 41 43
M  V30 35 1 41 44
M  V30 36 1 41 45
M  V30 37 1 46 47
M  V30 38 1 47 48
M  V30 39 1 49 50
M  V30 40 1 50 51
M  V30 41 1 52 53
M  V30 42 1 53 54
M  V30 43 1 55 56
M  V30 44 1 56 57
M  V30 45 1 58 59
M  V30 46 1 59 60
M  V30 47 1 61 62
M  V30 48 1 62 63
M  V30 49 1 64 65
M  V30 50 1 65 66
M  V30 51 1 67 68
M  V30 52 1 68 69
M  V30 53 1 70 71
M  V30 54 1 71 72
M  V30 55 1 73 74
M  V30 56 1 74 75
M  V30 57 1 76 77
M  V30 58 1 77 78
M  V30 59 1 79 80
M  V30 60 1 80 81
M  V30 61 1 82 83
M  V30 62 1 83 84
M  V30 63 1 85 86
M  V30 64 1 86 87
M  V30 65 1 88 89
M  V30 66 1 89 90
M  V30 67 1 91 92
M  V30 68 1 92 93
M  V30 69 1 94 95
M  V30 70 1 95 96
M  V30 71 1 97 98
M  V30 72 1 98 99
M  V30 73 1 2 58
M  V30 74 1 3 67
M  V30 75 1 4 46
M  V30 76 1 5 49
M  V30 77 1 7 64
M  V30 78 1 8 85
M  V30 79 1 9 91
M  V30 80 1 10 94
M  V30 81 1 12 88
M  V30 82 1 13 73
M  V30 83 1 14 76
M  V30 84 1 15 82
M  V30 85 1 17 90
M  V30 86 1 18 60
M  V30 87 1 19 78
M  V30 88 1 20 61
M  V30 89 1 22 52
M  V30 90 1 23 70
M  V30 91 1 24 55
M  V30 92 1 25 96
M  V30 93 1 27 72
M  V30 94 1 28 79
M  V30 95 1 29 66
M  V30 96 1 30 84
M  V30 97 1 32 97
M  V30 98 1 33 69
M  V30 99 1 34 48
M  V30 100 1 35 93
M  V30 101 1 37 63
M  V30 102 1 38 51
M  V30 103 1 39 57
M  V30 104 1 40 54
M  V30 105 1 42 75
M  V30 106 1 43 87
M  V30 107 1 44 99
M  V30 108 1 45 81
M  V30 END BOND
M  V30 END CTAB
M  END

$$$$
