
     RDKit          3D

  0  0  0  0  0  0  0  0  0  0999 V3000
M  V30 BEGIN CTAB
M  V30 COUNTS 99 108 0 0 0
M  V30 BEGIN ATOM
M  V30 1 Pd -5.2758 -1.7760 3.5023 0
M  V30 2 Pb -5.5698 -0.9349 3.0472 0
M  V30 3 Pb -4.9843 -2.6410 3.9117 0
M  V30 4 Pb -6.2239 -2.0808 3.5981 0
M  V30 5 Pb -4.3231 -1.4912 3.4048 0
M  V30 6 Pd -6.9161 -6.1569 1.9885 0
M  V30 7 Pb -6.2733 -6.6917 1.4401 0
M  V30 8 Pb -7.5164 -5.5326 2.4854 0
M  V30 9 Pb -6.2563 -6.0813 2.7351 0
M  V30 10 Pb -7.5447 -6.1603 1.2138 0
M  V30 11 Pd 3.1986 0.7165 -4.0941 0
M  V30 12 Pb 2.8688 1.6547 -4.1964 0
M  V30 13 Pb 3.5141 -0.2129 -3.9078 0
M  V30 14 Pb 4.1355 1.0584 -4.0494 0
M  V30 15 Pb 2.2605 0.3796 -4.1612 0
M  V30 16 Pd 7.9716 5.3365 -0.4394 0
M  V30 17 Pb 8.5841 4.6951 0.0240 0
M  V30 18 Pb 7.2572 5.9195 -0.8254 0
M  V30 19 Pb 7.9817 5.9036 0.3797 0
M  V30 20 Pb 7.9193 4.7304 -1.2301 0
M  V30 21 Pd -3.9758 0.3841 -1.2342 0
M  V30 22 Pb -3.1926 0.7092 -0.7037 0
M  V30 23 Pb -4.7393 0.0413 -1.7819 0
M  V30 24 Pb -3.3466 0.1173 -1.9622 0
M  V30 25 Pb -4.5996 0.6475 -0.4959 0
M  V30 26 Pd -5.4590 -4.5321 -2.3851 0
M  V30 27 Pb -5.1194 -5.3895 -1.9954 0
M  V30 28 Pb -4.5254 -4.2186 -2.5635 0
M  V30 29 Pb -6.3889 -4.8454 -2.1956 0
M  V30 30 Pb -5.8138 -3.6563 -2.7121 0
M  V30 31 Pd 2.5930 4.6861 -0.4847 0
M  V30 32 Pb 1.9033 4.0037 -0.2371 0
M  V30 33 Pb 2.7354 4.8098 0.5011 0
M  V30 34 Pb 2.4169 4.5555 -1.4633 0
M  V30 35 Pb 3.2695 5.3873 -0.7301 0
M  V30 36 Pd 1.6966 -2.0494 -0.1395 0
M  V30 37 Pb 2.4272 -1.8086 0.5007 0
M  V30 38 Pb 2.3678 -2.3118 -0.8334 0
M  V30 39 Pb 1.0329 -1.7539 0.5478 0
M  V30 40 Pb 0.9687 -2.2838 -0.7862 0
M  V30 41 Pd 6.2073 3.3238 3.3021 0
M  V30 42 Pb 6.5421 4.2595 3.3932 0
M  V30 43 Pb 7.1396 3.0383 3.0789 0
M  V30 44 Pb 5.2767 3.6735 3.3981 0
M  V30 45 Pb 5.8817 2.3833 3.1943 0
M  V30 46 Ag 4.8293 1.3374 -4.0196 0
M  V30 47 Fe 6.3789 2.7800 -2.9490 0
M  V30 48 Ag 7.8417 4.2523 -1.7995 0
M  V30 49 Ag 2.9604 -1.6213 0.9951 0
M  V30 50 Fe 4.3057 0.0323 2.0447 0
M  V30 51 Ag 5.6600 1.6709 3.1062 0
M  V30 52 Ag -3.6081 -1.2807 3.3302 0
M  V30 53 Fe -1.5326 -1.4138 2.1844 0
M  V30 54 Ag 0.5678 -1.5039 1.0805 0
M  V30 55 Ag -3.8301 -3.9729 -2.7041 0
M  V30 56 Fe -1.7007 -3.2219 -1.9634 0
M  V30 57 Ag 0.4511 -2.4622 -1.3009 0
M  V30 58 Ag -2.5856 0.9333 -0.3240 0
M  V30 59 Fe -0.6034 2.2366 -0.1924 0
M  V30 60 Ag 1.3920 3.5106 0.0081 0
M  V30 61 Ag 1.5566 0.1304 -4.2192 0
M  V30 62 Fe -0.6570 0.0159 -3.3704 0
M  V30 63 Ag -2.8619 -0.0804 -2.4972 0
M  V30 64 Ba -7.9628 -6.1209 0.5953 0
M  V30 65 Ga -7.5827 -5.6239 -0.7374 0
M  V30 66 Ba -7.0695 -5.1012 -2.0146 0
M  V30 67 Ba -4.7978 -3.3156 4.1819 0
M  V30 68 Ga -5.2436 -4.6625 3.7803 0
M  V30 69 Ba -5.7660 -5.9495 3.2859 0
M  V30 70 Ba 2.7723 4.8569 1.2529 0
M  V30 71 Ga 3.6862 4.4267 2.3315 0
M  V30 72 Ba 4.6020 3.9993 3.4096 0
M  V30 73 Ba 7.9469 6.2566 1.0356 0
M  V30 74 Ga 7.3991 5.7001 2.2791 0
M  V30 75 Ba 6.8108 4.9568 3.4006 0
M  V30 76 Ba -6.9167 -2.3595 3.6713 0
M  V30 77 Ga -7.4748 -3.6666 3.2801 0
M  V30 78 Ba -7.9107 -5.0040 2.8395 0
M  V30 79 Ba -5.2888 -0.2342 -2.2122 0
M  V30 80 Ga -5.7008 -1.6023 -2.5790 0
M  V30 81 Ba -6.0799 -2.9866 -2.9198 0
M  V30 82 Ba -5.7915 -7.0284 0.9740 0
M  V30 83 Ga -5.3097 -6.5818 -0.3477 0
M  V30 84 Ba -4.9078 -6.0241 -1.6539 0
M  V30 85 Ba 2.6179 2.3604 -4.2308 0
M  V30 86 Ga 2.4521 3.4223 -3.2177 0
M  V30 87 Ba 2.2876 4.4812 -2.2013 0
M  V30 88 Ba -5.7801 -0.3135 2.6822 0
M  V30 89 Ga -5.4254 0.2722 1.3738 0
M  V30 90 Ba -5.0616 0.8465 0.0629 0
M  V30 91 Ba 8.9624 4.1965 0.4384 0
M  V30 92 Ga 8.4844 3.4950 1.6459 0
M  V30 93 Ba 7.8324 2.8971 2.8274 0
M  V30 94 Ba 6.6786 6.3328 -1.0642 0
M  V30 95 Ga 5.2155 6.1246 -1.0127 0
M  V30 96 Ba 3.7520 5.9199 -0.9610 0
M  V30 97 Ba 3.7234 -0.9045 -3.7104 0
M  V30 98 Ga 3.3199 -1.7311 -2.5578 0
M  V30 99 Ba 2.8568 -2.4827 -1.3766 0
M  V30 END ATOM
M  V30 BEGIN BOND
M  V30 1 1 1 2
M  V30 2 1 1 3
M  V30 3 1 1 4
M  V30 4 1 1 5
M  V30 5 1 6 7
M  V30 6 1 6 8
M  V30 7 1 6 9
M  V30 8 1 6 10
M  V30 9 1 11 12
M  V30 10 1 11 13
M  V30 11 1 11 14
M  V30 12 1 11 15
M  V30 13 1 16 17
M  V30 14 1 16 18
M  V30 15 1 16 19
M  V30 16 1 16 20
M  V30 17 1 21 22
M  V30 18 1 21 23
M  V30 19 1 21 24
M  V30 20 1 21 25
M  V30 21 1 26 27
M  V30 22 1 26 28
M  V30 23 1 26 29
M  V30 24 1 26 30
M  V30 25 1 31 32
M  V30 26 1 31 33
M  V30 27 1 31 34
M  V30 28 1 31 35
M  V30 29 1 36 37
M  V30 30 1 36 38
M  V30 31 1 36 39
M  V30 32 1 36 40
M  V30 33 1 41 42
M  V30 34 1 41 43
M  V30 35 1 41 44
M  V30 36 1 41 45
M  V30 37 1 46 47
M  V30 38 1 47 48
M  V30 39 1 49 50
M  V30 40 1 50 51
M  V30 41 1 52 53
M  V30 42 1 53 54
M  V30 43 1 55 56
M  V30 44 1 56 57
M  V30 45 1 58 59
M  V30 46 1 59 60
M  V30 47 1 61 62
M  V30 48 1 62 63
M  V30 49 1 64 65
M  V30 50 1 65 66
M  V30 51 1 67 68
M  V30 52 1 68 69
M  V30 53 1 70 71
M  V30 54 1 71 72
M  V30 55 1 73 74
M  V30 56 1 74 75
M  V30 57 1 76 77
M  V30 58 1 77 78
M  V30 59 1 79 80
M  V30 60 1 80 81
M  V30 61 1 82 83
M  V30 62 1 83 84
M  V30 63 1 85 86
M  V30 64 1 86 87
M  V30 65 1 88 89
M  V30 66 1 89 90
M  V30 67 1 91 92
M  V30 68 1 92 93
M  V30 69 1 94 95
M  V30 70 1 95 96
M  V30 71 1 97 98
M  V30 72 1 98 99
M  V30 73 1 2 88
M  V30 74 1 3 67
M  V30 75 1 4 76
M  V30 76 1 5 52
M  V30 77 1 7 82
M  V30 78 1 8 78
M  V30 79 1 9 69
M  V30 80 1 10 64
M  V30 81 1 12 85
M  V30 82 1 13 97
M  V30 83 1 14 46
M  V30 84 1 15 61
M  V30 85 1 17 91
M  V30 86 1 18 94
M  V30 87 1 19 73
M  V30 88 1 20 48
M  V30 89 1 22 58
M  V30 90 1 23 79
M  V30 91 1 24 63
M  V30 92 1 25 90
M  V30 93 1 27 84
M  V30 94 1 28 55
M  V30 95 1 29 66
M  V30 96 1 30 81
M  V30 97 1 32 60
M  V30 98 1 33 70
M  V30 99 1 34 87
M  V30 100 1 35 96
M  V30 101 1 37 49
M  V30 102 1 38 99
M  V30 103 1 39 54
M  V30 104 1 40 57
M  V30 105 1 42 75
M  V30 106 1 43 93
M  V30 107 1 44 72
M  V30 108 1 45 51
M  V30 END BOND
M  V30 END CTAB
M  END

$$$$
