
     RDKit          3D

  0  0  0  0  0  0  0  0  0  0999 V3000
M  V30 BEGIN CTAB
M  V30 COUNTS 99 108 0 0 0
M  V30 BEGIN ATOM
M  V30 1 Pd -3.6027 2.4149 -1.6672 0
M  V30 2 Pb -3.8561 2.5004 -0.7022 0
M  V30 3 Pb -4.0528 1.5222 -1.6814 0
M  V30 4 Pb -3.1318 3.2981 -1.6356 0
M  V30 5 Pb -3.4057 2.3566 -2.6483 0
M  V30 6 Pd -1.3441 -7.6425 -3.4965 0
M  V30 7 Pb -1.0269 -7.0968 -2.7194 0
M  V30 8 Pb -1.6570 -8.1707 -4.2815 0
M  V30 9 Pb -0.5786 -7.3162 -4.0402 0
M  V30 10 Pb -2.2687 -7.7044 -3.0972 0
M  V30 11 Pd 2.8286 -0.7521 6.7564 0
M  V30 12 Pb 2.2531 -0.0130 7.1516 0
M  V30 13 Pb 3.3367 -1.4581 6.2652 0
M  V30 14 Pb 3.5903 -0.1185 6.6160 0
M  V30 15 Pb 2.0729 -1.3863 6.8788 0
M  V30 16 Pd 6.0324 4.4025 2.1232 0
M  V30 17 Pb 6.1777 3.8912 2.9700 0
M  V30 18 Pb 5.7766 5.2060 2.6554 0
M  V30 19 Pb 6.2668 3.5893 1.5914 0
M  V30 20 Pb 5.8075 4.9105 1.2891 0
M  V30 21 Pd 3.6133 -2.4276 -0.3285 0
M  V30 22 Pb 2.8310 -3.0538 -0.3247 0
M  V30 23 Pb 3.9183 -2.8058 0.5453 0
M  V30 24 Pb 4.3791 -1.7853 -0.3132 0
M  V30 25 Pb 3.2924 -1.9858 -1.1659 0
M  V30 26 Pd 1.8272 7.0753 1.4398 0
M  V30 27 Pb 2.5359 7.2508 2.1202 0
M  V30 28 Pb 1.1453 7.0833 2.1688 0
M  V30 29 Pb 1.1118 6.9009 0.7609 0
M  V30 30 Pb 2.5454 6.9867 0.7476 0
M  V30 31 Pd -2.0754 2.3511 5.9193 0
M  V30 32 Pb -2.8051 2.4514 5.2443 0
M  V30 33 Pb -1.8169 3.2996 5.7394 0
M  V30 34 Pb -2.3518 1.4122 6.0941 0
M  V30 35 Pb -1.2786 2.2155 6.5371 0
M  V30 36 Pd -1.6549 -0.9718 -5.8477 0
M  V30 37 Pb -0.7852 -0.7039 -5.4377 0
M  V30 38 Pb -2.5357 -1.2457 -6.2462 0
M  V30 39 Pb -1.2215 -1.8600 -6.0120 0
M  V30 40 Pb -2.0360 -0.0617 -5.6785 0
M  V30 41 Pd -5.5506 -4.5416 -4.7784 0
M  V30 42 Pb -5.5913 -5.2023 -5.5232 0
M  V30 43 Pb -5.5386 -3.8784 -4.0310 0
M  V30 44 Pb -5.5359 -3.7948 -5.4435 0
M  V30 45 Pb -5.4095 -5.3061 -4.1237 0
M  V30 46 Ag -0.7851 -6.6816 -2.1419 0
M  V30 47 Fe 0.7408 -5.0987 -1.2388 0
M  V30 48 Ag 2.2410 -3.5187 -0.2890 0
M  V30 49 Ag -4.0875 2.5607 0.0102 0
M  V30 50 Fe -3.7099 2.5460 2.3555 0
M  V30 51 Ag -3.3112 2.5281 4.6972 0
M  V30 52 Ag 3.0662 -1.6006 -1.7682 0
M  V30 53 Fe 1.4743 -1.0764 -3.4495 0
M  V30 54 Ag -0.1189 -0.5562 -5.1309 0
M  V30 55 Ag 6.4260 2.9665 1.2058 0
M  V30 56 Fe 5.7166 0.8353 0.4360 0
M  V30 57 Ag 4.9359 -1.2839 -0.2970 0
M  V30 58 Ag 1.4246 -1.7395 6.9325 0
M  V30 59 Fe -0.7777 -0.9487 6.6679 0
M  V30 60 Ag -2.4150 0.6898 6.2434 0
M  V30 61 Ag -2.0064 -8.4265 -4.8828 0
M  V30 62 Fe -3.8803 -7.4694 -5.9337 0
M  V30 63 Ag -5.5027 -5.7672 -5.9951 0
M  V30 64 Ag 4.1703 0.3406 6.4880 0
M  V30 65 Fe 5.2363 1.9265 5.0772 0
M  V30 66 Ag 6.2347 3.5061 3.6109 0
M  V30 67 Ag -0.1670 -6.9101 -4.5099 0
M  V30 68 Fe -0.3475 -4.7119 -5.3876 0
M  V30 69 Ag -0.8126 -2.4882 -6.0788 0
M  V30 70 Ag -2.7666 3.9546 -1.6184 0
M  V30 71 Fe -1.0993 5.3615 -0.6753 0
M  V30 72 Ag 0.5653 6.7768 0.2601 0
M  V30 73 Ag -4.3850 0.8506 -1.6522 0
M  V30 74 Fe -4.9524 -1.2564 -2.5885 0
M  V30 75 Ag -5.5494 -3.3771 -3.4743 0
M  V30 76 Ag 0.6681 7.0325 2.7429 0
M  V30 77 Fe -0.5170 5.5661 4.1851 0
M  V30 78 Ag -1.6563 4.0122 5.5714 0
M  V30 79 Ag 3.6743 -1.9595 5.8231 0
M  V30 80 Fe 3.9744 -2.5953 3.5554 0
M  V30 81 Ag 4.1279 -3.0354 1.2275 0
M  V30 82 Ba 5.5461 5.8102 3.0293 0
M  V30 83 Ga 4.3292 6.6200 2.8667 0
M  V30 84 Ba 3.0823 7.3597 2.6190 0
M  V30 85 Ba -2.9939 -7.6577 -2.8687 0
M  V30 86 Ga -4.1319 -6.7694 -3.2577 0
M  V30 87 Ba -5.2760 -5.8860 -3.6399 0
M  V30 88 Ba 1.8193 0.5447 7.4489 0
M  V30 89 Ga 0.5570 1.2989 7.1735 0
M  V30 90 Ba -0.6821 2.1209 7.0102 0
M  V30 91 Ba 5.5878 5.3076 0.6890 0
M  V30 92 Ga 4.3694 6.1056 0.4367 0
M  V30 93 Ba 3.1203 6.8794 0.2753 0
M  V30 94 Ba -3.2866 2.3605 -3.3910 0
M  V30 95 Ga -2.7904 1.4613 -4.4526 0
M  V30 96 Ba -2.3094 0.6302 -5.5750 0
M  V30 97 Ba -3.2156 -1.4012 -6.5354 0
M  V30 98 Ga -4.3346 -2.3237 -6.2446 0
M  V30 99 Ba -5.4507 -3.2492 -5.9519 0
M  V30 END ATOM
M  V30 BEGIN BOND
M  V30 1 1 1 2
M  V30 2 1 1 3
M  V30 3 1 1 4
M  V30 4 1 1 5
M  V30 5 1 6 7
M  V30 6 1 6 8
M  V30 7 1 6 9
M  V30 8 1 6 10
M  V30 9 1 11 12
M  V30 10 1 11 13
M  V30 11 1 11 14
M  V30 12 1 11 15
M  V30 13 1 16 17
M  V30 14 1 16 18
M  V30 15 1 16 19
M  V30 16 1 16 20
M  V30 17 1 21 22
M  V30 18 1 21 23
M  V30 19 1 21 24
M  V30 20 1 21 25
M  V30 21 1 26 27
M  V30 22 1 26 28
M  V30 23 1 26 29
M  V30 24 1 26 30
M  V30 25 1 31 32
M  V30 26 1 31 33
M  V30 27 1 31 34
M  V30 28 1 31 35
M  V30 29 1 36 37
M  V30 30 1 36 38
M  V30 31 1 36 39
M  V30 32 1 36 40
M  V30 33 1 41 42
M  V30 34 1 41 43
M  V30 35 1 41 44
M  V30 36 1 41 45
M  V30 37 1 46 47
M  V30 38 1 47 48
M  V30 39 1 49 50
M  V30 40 1 50 51
M  V30 41 1 52 53
M  V30 42 1 53 54
M  V30 43 1 55 56
M  V30 44 1 56 57
M  V30 45 1 58 59
M  V30 46 1 59 60
M  V30 47 1 61 62
M  V30 48 1 62 63
M  V30 49 1 64 65
M  V30 50 1 65 66
M  V30 51 1 67 68
M  V30 52 1 68 69
M  V30 53 1 70 71
M  V30 54 1 71 72
M  V30 55 1 73 74
M  V30 56 1 74 75
M  V30 57 1 76 77
M  V30 58 1 77 78
M  V30 59 1 79 80
M  V30 60 1 80 81
M  V30 61 1 82 83
M  V30 62 1 83 84
M  V30 63 1 85 86
M  V30 64 1 86 87
M  V30 65 1 88 89
M  V30 66 1 89 90
M  V30 67 1 91 92
M  V30 68 1 92 93
M  V30 69 1 94 95
M  V30 70 1 95 96
M  V30 71 1 97 98
M  V30 72 1 98 99
M  V30 73 1 2 49
M  V30 74 1 3 73
M  V30 75 1 4 70
M  V30 76 1 5 94
M  V30 77 1 7 46
M  V30 78 1 8 61
M  V30 79 1 9 67
M  V30 80 1 10 85
M  V30 81 1 12 88
M  V30 82 1 13 79
M  V30 83 1 14 64
M  V30 84 1 15 58
M  V30 85 1 17 66
M  V30 86 1 18 82
M  V30 87 1 19 55
M  V30 88 1 20 91
M  V30 89 1 22 48
M  V30 90 1 23 81
M  V30 91 1 24 57
M  V30 92 1 25 52
M  V30 93 1 27 84
M  V30 94 1 28 76
M  V30 95 1 29 72
M  V30 96 1 30 93
M  V30 97 1 32 51
M  V30 98 1 33 78
M  V30 99 1 34 60
M  V30 100 1 35 90
M  V30 101 1 37 54
M  V30 102 1 38 97
M  V30 103 1 39 69
M  V30 104 1 40 96
M  V30 105 1 42 63
M  V30 106 1 43 75
M  V30 107 1 44 99
M  V30 108 1 45 87
M  V30 END BOND
M  V30 END CTAB
M  END

$$$$
