
     RDKit          3D

  0  0  0  0  0  0  0  0  0  0999 V3000
M  V30 BEGIN CTAB
M  V30 COUNTS 99 108 0 0 0
M  V30 BEGIN ATOM
M  V30 1 Pd -3.6210 0.0543 3.7078 0
M  V30 2 Pb -4.1228 0.6109 3.0438 0
M  V30 3 Pb -4.1375 -0.7448 3.3902 0
M  V30 4 Pb -3.1298 0.8566 4.0547 0
M  V30 5 Pb -3.1009 -0.5097 4.3507 0
M  V30 6 Pd 0.0347 -6.2734 -0.8815 0
M  V30 7 Pb 0.2753 -5.3056 -0.7976 0
M  V30 8 Pb -0.7534 -6.0082 -1.4422 0
M  V30 9 Pb 0.7860 -6.5655 -0.2826 0
M  V30 10 Pb -0.2909 -7.2165 -0.9267 0
M  V30 11 Pd 0.1121 3.6477 -5.5852 0
M  V30 12 Pb -0.3185 4.5430 -5.4707 0
M  V30 13 Pb 0.5428 2.7470 -5.6455 0
M  V30 14 Pb 1.0181 4.0699 -5.6446 0
M  V30 15 Pb -0.7930 3.2272 -5.5041 0
M  V30 16 Pd 5.9467 5.3553 -1.3870 0
M  V30 17 Pb 5.7659 5.4407 -2.3656 0
M  V30 18 Pb 5.9694 5.2319 -0.3933 0
M  V30 19 Pb 6.3649 4.4606 -1.5398 0
M  V30 20 Pb 5.4645 6.2114 -1.2166 0
M  V30 21 Pd 3.7338 -1.6502 -1.4982 0
M  V30 22 Pb 2.8361 -2.0349 -1.2827 0
M  V30 23 Pb 3.4167 -1.4094 -2.4159 0
M  V30 24 Pb 4.5980 -1.1791 -1.6684 0
M  V30 25 Pb 4.0211 -1.8657 -0.5667 0
M  V30 26 Pd 0.6822 6.5809 3.1567 0
M  V30 27 Pb 1.5911 6.2072 3.3529 0
M  V30 28 Pb -0.2063 6.9188 2.8522 0
M  V30 29 Pb 0.2279 5.9080 3.7419 0
M  V30 30 Pb 1.1372 7.2083 2.5286 0
M  V30 31 Pd -3.7761 4.8834 -2.4012 0
M  V30 32 Pb -4.2701 4.2943 -1.7606 0
M  V30 33 Pb -3.7348 5.5778 -1.6843 0
M  V30 34 Pb -3.7678 4.1668 -3.0991 0
M  V30 35 Pb -3.2659 5.4710 -3.0308 0
M  V30 36 Pd 1.3298 -5.5811 4.3040 0
M  V30 37 Pb 2.0721 -4.9441 4.1062 0
M  V30 38 Pb 0.5652 -6.2033 4.4641 0
M  V30 39 Pb 1.7161 -6.1880 3.6078 0
M  V30 40 Pb 0.8865 -4.9198 4.9074 0
M  V30 41 Pd -4.3733 -7.0615 0.5698 0
M  V30 42 Pb -4.3284 -6.6428 -0.3348 0
M  V30 43 Pb -4.8322 -6.2539 0.9436 0
M  V30 44 Pb -4.2422 -7.4207 1.4893 0
M  V30 45 Pb -3.8445 -7.8302 0.2107 0
M  V30 46 Ag -4.5064 0.9963 2.5254 0
M  V30 47 Fe -4.5669 2.4368 0.6366 0
M  V30 48 Ag -4.6325 3.8775 -1.2519 0
M  V30 49 Ag 4.1808 -2.0332 0.1448 0
M  V30 50 Fe 3.4837 -3.2232 2.0753 0
M  V30 51 Ag 2.6202 -4.4832 3.8906 0
M  V30 52 Ag 6.6203 3.7661 -1.6573 0
M  V30 53 Fe 6.0272 1.4691 -1.7410 0
M  V30 54 Ag 5.2100 -0.7594 -1.7685 0
M  V30 55 Ag 5.8574 5.1676 0.3477 0
M  V30 56 Fe 4.1787 5.5057 1.9977 0
M  V30 57 Ag 2.2983 5.9522 3.3833 0
M  V30 58 Ag 5.0487 6.7990 -1.0176 0
M  V30 59 Fe 3.2835 7.3866 0.4518 0
M  V30 60 Ag 1.5292 7.6050 2.0314 0
M  V30 61 Ag 1.7073 4.3684 -5.6648 0
M  V30 62 Fe 3.6664 4.9579 -4.4579 0
M  V30 63 Ag 5.5275 5.4731 -3.0750 0
M  V30 64 Ag -2.7619 1.4388 4.3584 0
M  V30 65 Fe -1.4462 3.4148 4.2371 0
M  V30 66 Ag -0.1313 5.3935 4.1544 0
M  V30 67 Ag -2.6830 -0.9190 4.8215 0
M  V30 68 Fe -1.0921 -2.6550 5.1320 0
M  V30 69 Ag 0.4967 -4.4126 5.2974 0
M  V30 70 Ag -0.0461 -6.6269 4.5468 0
M  V30 71 Fe -2.0845 -7.2536 3.5106 0
M  V30 72 Ag -3.9954 -7.6328 2.1600 0
M  V30 73 Ag -4.5581 -1.3228 3.1532 0
M  V30 74 Fe -4.8392 -3.4801 2.1940 0
M  V30 75 Ag -5.1420 -5.6355 1.2372 0
M  V30 76 Ag -0.8534 7.1333 2.5442 0
M  V30 77 Fe -2.3418 6.6871 0.7507 0
M  V30 78 Ag -3.6706 6.0557 -1.1113 0
M  V30 79 Ag 0.8818 2.0779 -5.6540 0
M  V30 80 Fe 2.0264 0.4052 -4.4154 0
M  V30 81 Ag 3.1604 -1.2089 -3.0922 0
M  V30 82 Ba 0.3535 -4.5621 -0.7282 0
M  V30 83 Ga 1.3155 -3.4618 -0.9316 0
M  V30 84 Ba 2.1483 -2.2524 -1.0767 0
M  V30 85 Ba -1.4809 2.9357 -5.4257 0
M  V30 86 Ga -2.6161 3.2627 -4.5407 0
M  V30 87 Ba -3.7146 3.6380 -3.6288 0
M  V30 88 Ba -0.6200 -7.8886 -0.9361 0
M  V30 89 Ga -1.9944 -8.2149 -0.5181 0
M  V30 90 Ba -3.3867 -8.3591 -0.0585 0
M  V30 91 Ba -1.3775 -5.8373 -1.8270 0
M  V30 92 Ga -2.7985 -6.0457 -1.4860 0
M  V30 93 Ba -4.1604 -6.3259 -0.9913 0
M  V30 94 Ba -0.6651 5.1969 -5.3488 0
M  V30 95 Ga -1.7672 5.5740 -4.4427 0
M  V30 96 Ba -2.8716 5.8876 -3.5155 0
M  V30 97 Ba 1.3242 -6.8322 0.1737 0
M  V30 98 Ga 1.6671 -6.7126 1.6078 0
M  V30 99 Ba 2.0069 -6.5886 3.0422 0
M  V30 END ATOM
M  V30 BEGIN BOND
M  V30 1 1 1 2
M  V30 2 1 1 3
M  V30 3 1 1 4
M  V30 4 1 1 5
M  V30 5 1 6 7
M  V30 6 1 6 8
M  V30 7 1 6 9
M  V30 8 1 6 10
M  V30 9 1 11 12
M  V30 10 1 11 13
M  V30 11 1 11 14
M  V30 12 1 11 15
M  V30 13 1 16 17
M  V30 14 1 16 18
M  V30 15 1 16 19
M  V30 16 1 16 20
M  V30 17 1 21 22
M  V30 18 1 21 23
M  V30 19 1 21 24
M  V30 20 1 21 25
M  V30 21 1 26 27
M  V30 22 1 26 28
M  V30 23 1 26 29
M  V30 24 1 26 30
M  V30 25 1 31 32
M  V30 26 1 31 33
M  V30 27 1 31 34
M  V30 28 1 31 35
M  V30 29 1 36 37
M  V30 30 1 36 38
M  V30 31 1 36 39
M  V30 32 1 36 40
M  V30 33 1 41 42
M  V30 34 1 41 43
M  V30 35 1 41 44
M  V30 36 1 41 45
M  V30 37 1 46 47
M  V30 38 1 47 48
M  V30 39 1 49 50
M  V30 40 1 50 51
M  V30 41 1 52 53
M  V30 42 1 53 54
M  V30 43 1 55 56
M  V30 44 1 56 57
M  V30 45 1 58 59
M  V30 46 1 59 60
M  V30 47 1 61 62
M  V30 48 1 62 63
M  V30 49 1 64 65
M  V30 50 1 65 66
M  V30 51 1 67 68
M  V30 52 1 68 69
M  V30 53 1 70 71
M  V30 54 1 71 72
M  V30 55 1 73 74
M  V30 56 1 74 75
M  V30 57 1 76 77
M  V30 58 1 77 78
M  V30 59 1 79 80
M  V30 60 1 80 81
M  V30 61 1 82 83
M  V30 62 1 83 84
M  V30 63 1 85 86
M  V30 64 1 86 87
M  V30 65 1 88 89
M  V30 66 1 89 90
M  V30 67 1 91 92
M  V30 68 1 92 93
M  V30 69 1 94 95
M  V30 70 1 95 96
M  V30 71 1 97 98
M  V30 72 1 98 99
M  V30 73 1 2 46
M  V30 74 1 3 73
M  V30 75 1 4 64
M  V30 76 1 5 67
M  V30 77 1 7 82
M  V30 78 1 8 91
M  V30 79 1 9 97
M  V30 80 1 10 88
M  V30 81 1 12 94
M  V30 82 1 13 79
M  V30 83 1 14 61
M  V30 84 1 15 85
M  V30 85 1 17 63
M  V30 86 1 18 55
M  V30 87 1 19 52
M  V30 88 1 20 58
M  V30 89 1 22 84
M  V30 90 1 23 81
M  V30 91 1 24 54
M  V30 92 1 25 49
M  V30 93 1 27 57
M  V30 94 1 28 76
M  V30 95 1 29 66
M  V30 96 1 30 60
M  V30 97 1 32 48
M  V30 98 1 33 78
M  V30 99 1 34 87
M  V30 100 1 35 96
M  V30 101 1 37 51
M  V30 102 1 38 70
M  V30 103 1 39 99
M  V30 104 1 40 69
M  V30 105 1 42 93
M  V30 106 1 43 75
M  V30 107 1 44 72
M  V30 108 1 45 90
M  V30 END BOND
M  V30 END CTAB
M  END

$$$$
