
     RDKit          3D

  0  0  0  0  0  0  0  0  0  0999 V3000
M  V30 BEGIN CTAB
M  V30 COUNTS 99 108 0 0 0
M  V30 BEGIN ATOM
M  V30 1 Pd 2.7787 2.3031 1.7753 0
M  V30 2 Pb 2.2815 2.7486 2.5142 0
M  V30 3 Pb 2.3712 1.4384 2.0726 0
M  V30 4 Pb 3.1235 3.1923 1.4638 0
M  V30 5 Pb 3.2440 1.8330 1.0253 0
M  V30 6 Pd -0.1365 -8.4819 3.0774 0
M  V30 7 Pb -0.7185 -7.9638 2.4476 0
M  V30 8 Pb -0.4515 -7.9356 3.8692 0
M  V30 9 Pb 0.3558 -8.8489 2.2922 0
M  V30 10 Pb 0.4412 -9.0090 3.6955 0
M  V30 11 Pd -4.3682 1.8564 -2.0549 0
M  V30 12 Pb -4.4425 2.8590 -2.0360 0
M  V30 13 Pb -4.3163 0.8530 -2.0438 0
M  V30 14 Pb -4.3118 1.8670 -3.0561 0
M  V30 15 Pb -4.4842 1.8509 -1.0629 0
M  V30 16 Pd -1.0975 4.0495 -5.4853 0
M  V30 17 Pb -1.9236 3.5427 -5.7223 0
M  V30 18 Pb -0.2842 4.5391 -5.1218 0
M  V30 19 Pb -0.6129 3.1817 -5.4362 0
M  V30 20 Pb -1.6014 4.9044 -5.5252 0
M  V30 21 Pd -1.1648 -3.1376 -2.5873 0
M  V30 22 Pb -1.4777 -3.8809 -1.9923 0
M  V30 23 Pb -2.0143 -2.6450 -2.3698 0
M  V30 24 Pb -0.8235 -2.3941 -3.1570 0
M  V30 25 Pb -0.3579 -3.6553 -2.8811 0
M  V30 26 Pd 0.9380 7.0343 -0.8909 0
M  V30 27 Pb 1.2084 6.6355 -1.7855 0
M  V30 28 Pb 0.5706 7.4114 -0.0427 0
M  V30 29 Pb 1.7100 6.5814 -0.4299 0
M  V30 30 Pb 0.2158 7.5377 -1.3500 0
M  V30 31 Pd -3.3569 5.4727 1.6872 0
M  V30 32 Pb -2.8749 5.2714 2.5332 0
M  V30 33 Pb -2.8339 6.3273 1.6740 0
M  V30 34 Pb -3.8135 4.5857 1.7271 0
M  V30 35 Pb -3.7536 5.6166 0.7779 0
M  V30 36 Pd 4.0681 -4.5494 -1.1739 0
M  V30 37 Pb 3.4962 -4.6231 -1.9895 0
M  V30 38 Pb 4.5763 -4.4544 -0.3166 0
M  V30 39 Pb 3.8711 -5.5158 -1.0009 0
M  V30 40 Pb 4.2285 -3.5761 -1.3373 0
M  V30 41 Pd 2.3591 -4.5062 5.7112 0
M  V30 42 Pb 1.4511 -4.9280 5.8657 0
M  V30 43 Pb 1.9436 -3.7873 5.1540 0
M  V30 44 Pb 3.2518 -4.2280 5.3644 0
M  V30 45 Pb 2.7800 -5.2492 6.2256 0
M  V30 46 Ag -1.1510 -7.6007 1.9512 0
M  V30 47 Fe -1.4201 -6.0011 0.2133 0
M  V30 48 Ag -1.7356 -4.4128 -1.5272 0
M  V30 49 Ag 1.8404 3.0567 3.0299 0
M  V30 50 Fe -0.2651 4.1062 3.2909 0
M  V30 51 Ag -2.4009 5.1041 3.0809 0
M  V30 52 Ag -0.2920 2.5106 -5.3929 0
M  V30 53 Fe -0.3950 0.3218 -4.4883 0
M  V30 54 Ag -0.5080 -1.8651 -3.5799 0
M  V30 55 Ag 0.9118 -9.2542 4.2144 0
M  V30 56 Fe 2.2522 -8.0022 5.6898 0
M  V30 57 Ag 2.9911 -5.9124 6.4808 0
M  V30 58 Ag -1.9006 5.5702 -5.4131 0
M  V30 59 Fe -1.4434 7.1141 -3.6992 0
M  V30 60 Ag -0.3160 7.8395 -1.7663 0
M  V30 61 Ag 0.8155 -8.9751 1.7168 0
M  V30 62 Fe 2.2844 -7.7301 0.3279 0
M  V30 63 Ag 3.6617 -6.2293 -0.8924 0
M  V30 64 Ag 3.5662 1.4508 0.4662 0
M  V30 65 Fe 3.9865 -0.6679 -0.5210 0
M  V30 66 Ag 4.3429 -2.8391 -1.4148 0
M  V30 67 Ag 4.9032 -4.3305 0.3482 0
M  V30 68 Fe 4.5523 -4.1719 2.6913 0
M  V30 69 Ag 3.8711 -4.1028 4.9646 0
M  V30 70 Ag 2.0132 0.8193 2.3021 0
M  V30 71 Fe 1.8627 -1.2171 3.5164 0
M  V30 72 Ag 1.6491 -3.2614 4.7076 0
M  V30 73 Ba 0.2314 -4.0155 -3.1813 0
M  V30 74 Ga 1.6315 -4.3502 -2.8532 0
M  V30 75 Ba 3.0358 -4.7110 -2.5737 0
M  V30 76 Ba 0.3415 4.8819 -4.8418 0
M  V30 77 Ga 0.8162 5.6161 -3.6287 0
M  V30 78 Ba 1.4051 6.3595 -2.4726 0
M  V30 79 Ba -4.6011 1.8658 -0.3233 0
M  V30 80 Ga -4.3692 2.8737 0.7256 0
M  V30 81 Ba -4.1226 3.9044 1.7487 0
M  V30 82 Ba -0.6186 -7.4873 4.4645 0
M  V30 83 Ga 0.0836 -6.3869 5.1924 0
M  V30 84 Ba 0.7784 -5.2856 5.9261 0
M  V30 85 Ba -4.5167 3.6101 -2.0007 0
M  V30 86 Ga -4.2751 4.6460 -0.9699 0
M  V30 87 Ba -4.0247 5.6635 0.0771 0
M  V30 88 Ba -4.2985 1.8840 -3.8087 0
M  V30 89 Ga -3.4359 2.4997 -4.8358 0
M  V30 90 Ba -2.5420 3.1344 -5.8238 0
M  V30 91 Ba 3.3706 3.8685 1.2418 0
M  V30 92 Ga 2.8071 5.0575 0.5607 0
M  V30 93 Ba 2.3308 6.2887 -0.1116 0
M  V30 94 Ba 0.1907 7.7147 0.5276 0
M  V30 95 Ga -1.0930 7.3369 1.1529 0
M  V30 96 Ba -2.3802 6.9233 1.7476 0
M  V30 97 Ba -4.3278 0.1002 -1.9955 0
M  V30 98 Ga -3.4421 -1.0796 -2.1274 0
M  V30 99 Ba -2.6958 -2.3556 -2.2187 0
M  V30 END ATOM
M  V30 BEGIN BOND
M  V30 1 1 1 2
M  V30 2 1 1 3
M  V30 3 1 1 4
M  V30 4 1 1 5
M  V30 5 1 6 7
M  V30 6 1 6 8
M  V30 7 1 6 9
M  V30 8 1 6 10
M  V30 9 1 11 12
M  V30 10 1 11 13
M  V30 11 1 11 14
M  V30 12 1 11 15
M  V30 13 1 16 17
M  V30 14 1 16 18
M  V30 15 1 16 19
M  V30 16 1 16 20
M  V30 17 1 21 22
M  V30 18 1 21 23
M  V30 19 1 21 24
M  V30 20 1 21 25
M  V30 21 1 26 27
M  V30 22 1 26 28
M  V30 23 1 26 29
M  V30 24 1 26 30
M  V30 25 1 31 32
M  V30 26 1 31 33
M  V30 27 1 31 34
M  V30 28 1 31 35
M  V30 29 1 36 37
M  V30 30 1 36 38
M  V30 31 1 36 39
M  V30 32 1 36 40
M  V30 33 1 41 42
M  V30 34 1 41 43
M  V30 35 1 41 44
M  V30 36 1 41 45
M  V30 37 1 46 47
M  V30 38 1 47 48
M  V30 39 1 49 50
M  V30 40 1 50 51
M  V30 41 1 52 53
M  V30 42 1 53 54
M  V30 43 1 55 56
M  V30 44 1 56 57
M  V30 45 1 58 59
M  V30 46 1 59 60
M  V30 47 1 61 62
M  V30 48 1 62 63
M  V30 49 1 64 65
M  V30 50 1 65 66
M  V30 51 1 67 68
M  V30 52 1 68 69
M  V30 53 1 70 71
M  V30 54 1 71 72
M  V30 55 1 73 74
M  V30 56 1 74 75
M  V30 57 1 76 77
M  V30 58 1 77 78
M  V30 59 1 79 80
M  V30 60 1 80 81
M  V30 61 1 82 83
M  V30 62 1 83 84
M  V30 63 1 85 86
M  V30 64 1 86 87
M  V30 65 1 88 89
M  V30 66 1 89 90
M  V30 67 1 91 92
M  V30 68 1 92 93
M  V30 69 1 94 95
M  V30 70 1 95 96
M  V30 71 1 97 98
M  V30 72 1 98 99
M  V30 73 1 2 49
M  V30 74 1 3 70
M  V30 75 1 4 91
M  V30 76 1 5 64
M  V30 77 1 7 46
M  V30 78 1 8 82
M  V30 79 1 9 61
M  V30 80 1 10 55
M  V30 81 1 12 85
M  V30 82 1 13 97
M  V30 83 1 14 88
M  V30 84 1 15 79
M  V30 85 1 17 90
M  V30 86 1 18 76
M  V30 87 1 19 52
M  V30 88 1 20 58
M  V30 89 1 22 48
M  V30 90 1 23 99
M  V30 91 1 24 54
M  V30 92 1 25 73
M  V30 93 1 27 78
M  V30 94 1 28 94
M  V30 95 1 29 93
M  V30 96 1 30 60
M  V30 97 1 32 51
M  V30 98 1 33 96
M  V30 99 1 34 81
M  V30 100 1 35 87
M  V30 101 1 37 75
M  V30 102 1 38 67
M  V30 103 1 39 63
M  V30 104 1 40 66
M  V30 105 1 42 84
M  V30 106 1 43 72
M  V30 107 1 44 69
M  V30 108 1 45 57
M  V30 END BOND
M  V30 END CTAB
M  END

$$$$
