
     RDKit          3D

  0  0  0  0  0  0  0  0  0  0999 V3000
M  V30 BEGIN CTAB
M  V30 COUNTS 99 108 0 0 0
M  V30 BEGIN ATOM
M  V30 1 Pd -0.9780 -5.5323 4.1406 0
M  V30 2 Pb -1.4844 -4.7410 3.7930 0
M  V30 3 Pb -0.6962 -5.0448 4.9665 0
M  V30 4 Pb -0.4033 -6.2867 4.4627 0
M  V30 5 Pb -1.1751 -5.9944 3.2777 0
M  V30 6 Pd 5.4762 -5.0202 6.1432 0
M  V30 7 Pb 6.0821 -5.3679 5.4279 0
M  V30 8 Pb 5.0413 -5.9122 6.2513 0
M  V30 9 Pb 4.7479 -4.6465 6.7148 0
M  V30 10 Pb 5.7386 -4.1026 5.8554 0
M  V30 11 Pd 1.8824 3.8527 -1.1821 0
M  V30 12 Pb 1.8396 4.6471 -0.5682 0
M  V30 13 Pb 1.8832 3.0602 -1.7965 0
M  V30 14 Pb 1.6703 4.4340 -1.9698 0
M  V30 15 Pb 2.1676 3.2712 -0.4173 0
M  V30 16 Pd -3.3138 6.2301 -5.8846 0
M  V30 17 Pb -4.2707 5.9517 -5.7249 0
M  V30 18 Pb -3.3546 6.8576 -5.1100 0
M  V30 19 Pb -3.2624 5.5529 -6.6144 0
M  V30 20 Pb -2.3284 6.3787 -5.8997 0
M  V30 21 Pd 0.3084 -0.5830 1.9583 0
M  V30 22 Pb 0.0175 -0.0152 2.7225 0
M  V30 23 Pb 0.5668 -1.0394 1.1080 0
M  V30 24 Pb 1.0879 0.0327 1.8371 0
M  V30 25 Pb -0.4881 -1.1772 2.1011 0
M  V30 26 Pd 4.5441 -3.3954 -0.4340 0
M  V30 27 Pb 5.2830 -3.9875 -0.1106 0
M  V30 28 Pb 4.3128 -3.9925 -1.1999 0
M  V30 29 Pb 4.7698 -2.7991 0.3370 0
M  V30 30 Pb 3.7303 -2.8721 -0.6804 0
M  V30 31 Pd -2.0849 6.1055 1.4893 0
M  V30 32 Pb -1.8874 5.4685 2.2318 0
M  V30 33 Pb -3.0109 5.7333 1.4209 0
M  V30 34 Pb -1.1227 6.3833 1.4657 0
M  V30 35 Pb -2.2988 6.7307 0.7407 0
M  V30 36 Pd -0.0666 -3.4983 -2.7293 0
M  V30 37 Pb -0.9329 -3.0468 -2.5031 0
M  V30 38 Pb 0.3149 -2.6419 -3.0821 0
M  V30 39 Pb -0.4192 -4.3288 -2.3004 0
M  V30 40 Pb 0.7888 -3.9761 -2.9414 0
M  V30 41 Pd -5.7502 1.8664 -3.3777 0
M  V30 42 Pb -5.5587 1.4823 -4.2775 0
M  V30 43 Pb -6.0144 2.7311 -3.8341 0
M  V30 44 Pb -5.8886 2.2948 -2.4829 0
M  V30 45 Pb -5.4166 1.0297 -2.9416 0
M  V30 46 Ag 1.5403 4.8478 -2.5838 0
M  V30 47 Fe 0.0473 5.6873 -4.2288 0
M  V30 48 Ag -1.5936 6.4321 -5.7751 0
M  V30 49 Ag -1.5987 -2.7536 -2.3096 0
M  V30 50 Fe -3.3546 -1.1606 -2.4823 0
M  V30 51 Ag -5.1316 0.4121 -2.6235 0
M  V30 52 Ag 5.8306 -3.4616 5.4833 0
M  V30 53 Fe 5.4758 -2.7266 3.2552 0
M  V30 54 Ag 4.9890 -2.4284 0.9515 0
M  V30 55 Ag -0.3692 -4.7292 5.5620 0
M  V30 56 Fe 1.7963 -4.4437 6.4897 0
M  V30 57 Ag 4.1089 -4.4049 7.0197 0
M  V30 58 Ag -3.6745 5.4033 1.3023 0
M  V30 59 Fe -4.8946 4.0279 -0.2034 0
M  V30 60 Ag -5.9542 2.6493 -1.8233 0
M  V30 61 Ag -3.3170 4.9394 -7.0292 0
M  V30 62 Fe -4.2618 2.8564 -6.4543 0
M  V30 63 Ag -5.3391 1.3663 -4.9775 0
M  V30 64 Ag 0.0984 -6.7726 4.7398 0
M  V30 65 Fe 2.3323 -6.8664 5.5413 0
M  V30 66 Ag 4.5730 -6.4959 6.2354 0
M  V30 67 Ag -1.2866 -6.2650 2.5889 0
M  V30 68 Fe -1.0356 -5.7222 0.2924 0
M  V30 69 Ag -0.6723 -4.9154 -1.9097 0
M  V30 70 Ag 6.4460 -5.5477 4.7973 0
M  V30 71 Fe 6.2945 -5.1037 2.4687 0
M  V30 72 Ag 5.7840 -4.4104 0.2549 0
M  V30 73 Ag -0.2109 0.5082 3.2012 0
M  V30 74 Fe -0.9959 2.7441 3.1581 0
M  V30 75 Ag -1.7435 4.9578 2.7587 0
M  V30 76 Ag -3.3421 7.2859 -4.4974 0
M  V30 77 Fe -2.9312 7.3158 -2.1609 0
M  V30 78 Ag -2.4853 7.1710 0.1649 0
M  V30 79 Ag 1.8580 2.4799 -2.2754 0
M  V30 80 Fe 1.2433 0.2432 -2.7980 0
M  V30 81 Ag 0.6244 -1.9951 -3.3083 0
M  V30 82 Ba 0.7667 -1.2833 0.4279 0
M  V30 83 Ga 1.9347 -1.9277 -0.2000 0
M  V30 84 Ba 3.0750 -2.5690 -0.8799 0
M  V30 85 Ba 1.7961 5.2424 -0.1060 0
M  V30 86 Ga 0.7132 5.9029 0.6569 0
M  V30 87 Ba -0.3897 6.5425 1.4088 0
M  V30 88 Ba 4.0744 -4.3921 -1.7863 0
M  V30 89 Ga 2.7609 -4.3968 -2.4593 0
M  V30 90 Ba 1.4250 -4.3515 -3.0852 0
M  V30 91 Ba 2.4326 2.8461 0.1438 0
M  V30 92 Ga 2.0198 1.6722 0.9393 0
M  V30 93 Ba 1.6693 0.5029 1.7706 0
M  V30 94 Ba -1.8501 -4.1595 3.4871 0
M  V30 95 Ga -1.4589 -2.8747 2.8674 0
M  V30 96 Ba -1.1089 -1.5822 2.2394 0
M  V30 97 Ba -4.9727 5.7065 -5.5677 0
M  V30 98 Ga -5.5681 4.5295 -4.8741 0
M  V30 99 Ba -6.2159 3.3743 -4.1911 0
M  V30 END ATOM
M  V30 BEGIN BOND
M  V30 1 1 1 2
M  V30 2 1 1 3
M  V30 3 1 1 4
M  V30 4 1 1 5
M  V30 5 1 6 7
M  V30 6 1 6 8
M  V30 7 1 6 9
M  V30 8 1 6 10
M  V30 9 1 11 12
M  V30 10 1 11 13
M  V30 11 1 11 14
M  V30 12 1 11 15
M  V30 13 1 16 17
M  V30 14 1 16 18
M  V30 15 1 16 19
M  V30 16 1 16 20
M  V30 17 1 21 22
M  V30 18 1 21 23
M  V30 19 1 21 24
M  V30 20 1 21 25
M  V30 21 1 26 27
M  V30 22 1 26 28
M  V30 23 1 26 29
M  V30 24 1 26 30
M  V30 25 1 31 32
M  V30 26 1 31 33
M  V30 27 1 31 34
M  V30 28 1 31 35
M  V30 29 1 36 37
M  V30 30 1 36 38
M  V30 31 1 36 39
M  V30 32 1 36 40
M  V30 33 1 41 42
M  V30 34 1 41 43
M  V30 35 1 41 44
M  V30 36 1 41 45
M  V30 37 1 46 47
M  V30 38 1 47 48
M  V30 39 1 49 50
M  V30 40 1 50 51
M  V30 41 1 52 53
M  V30 42 1 53 54
M  V30 43 1 55 56
M  V30 44 1 56 57
M  V30 45 1 58 59
M  V30 46 1 59 60
M  V30 47 1 61 62
M  V30 48 1 62 63
M  V30 49 1 64 65
M  V30 50 1 65 66
M  V30 51 1 67 68
M  V30 52 1 68 69
M  V30 53 1 70 71
M  V30 54 1 71 72
M  V30 55 1 73 74
M  V30 56 1 74 75
M  V30 57 1 76 77
M  V30 58 1 77 78
M  V30 59 1 79 80
M  V30 60 1 80 81
M  V30 61 1 82 83
M  V30 62 1 83 84
M  V30 63 1 85 86
M  V30 64 1 86 87
M  V30 65 1 88 89
M  V30 66 1 89 90
M  V30 67 1 91 92
M  V30 68 1 92 93
M  V30 69 1 94 95
M  V30 70 1 95 96
M  V30 71 1 97 98
M  V30 72 1 98 99
M  V30 73 1 2 94
M  V30 74 1 3 55
M  V30 75 1 4 64
M  V30 76 1 5 67
M  V30 77 1 7 70
M  V30 78 1 8 66
M  V30 79 1 9 57
M  V30 80 1 10 52
M  V30 81 1 12 85
M  V30 82 1 13 79
M  V30 83 1 14 46
M  V30 84 1 15 91
M  V30 85 1 17 97
M  V30 86 1 18 76
M  V30 87 1 19 61
M  V30 88 1 20 48
M  V30 89 1 22 73
M  V30 90 1 23 82
M  V30 91 1 24 93
M  V30 92 1 25 96
M  V30 93 1 27 72
M  V30 94 1 28 88
M  V30 95 1 29 54
M  V30 96 1 30 84
M  V30 97 1 32 75
M  V30 98 1 33 58
M  V30 99 1 34 87
M  V30 100 1 35 78
M  V30 101 1 37 49
M  V30 102 1 38 81
M  V30 103 1 39 69
M  V30 104 1 40 90
M  V30 105 1 42 63
M  V30 106 1 43 99
M  V30 107 1 44 60
M  V30 108 1 45 51
M  V30 END BOND
M  V30 END CTAB
M  END

$$$$
