
     RDKit          3D

  0  0  0  0  0  0  0  0  0  0999 V3000
M  V30 BEGIN CTAB
M  V30 COUNTS 99 108 0 0 0
M  V30 BEGIN ATOM
M  V30 1 Pd -1.8980 -4.0982 2.4629 0
M  V30 2 Pb -2.1351 -4.5811 1.6218 0
M  V30 3 Pb -1.2724 -4.8186 2.7661 0
M  V30 4 Pb -2.4816 -3.3522 2.1421 0
M  V30 5 Pb -1.6394 -3.5715 3.2677 0
M  V30 6 Pd -4.6970 3.3029 2.2251 0
M  V30 7 Pb -4.8513 4.2272 2.5649 0
M  V30 8 Pb -3.7252 3.3713 2.4969 0
M  V30 9 Pb -4.5766 2.3635 1.9040 0
M  V30 10 Pb -5.5552 3.3608 1.7209 0
M  V30 11 Pd -0.8852 5.6328 -0.5159 0
M  V30 12 Pb -0.4858 4.8341 -0.9626 0
M  V30 13 Pb -0.7946 5.1911 0.3902 0
M  V30 14 Pb -1.2289 5.9585 -1.3947 0
M  V30 15 Pb -1.2430 6.4533 -0.0774 0
M  V30 16 Pd -3.0107 -1.7202 -4.3249 0
M  V30 17 Pb -2.8916 -0.8247 -4.7562 0
M  V30 18 Pb -2.1705 -2.0592 -4.7476 0
M  V30 19 Pb -3.8488 -1.3887 -3.8924 0
M  V30 20 Pb -3.0931 -2.5901 -3.8389 0
M  V30 21 Pd 3.8076 2.6044 -0.1121 0
M  V30 22 Pb 4.6172 2.4017 0.4407 0
M  V30 23 Pb 4.2557 2.2288 -0.9207 0
M  V30 24 Pb 2.9725 2.7182 -0.6527 0
M  V30 25 Pb 3.3535 2.9302 0.7155 0
M  V30 26 Pd -4.7197 3.1583 -2.9343 0
M  V30 27 Pb -5.1191 2.2451 -2.8554 0
M  V30 28 Pb -4.1194 2.8196 -3.6617 0
M  V30 29 Pb -4.2918 4.0641 -3.0404 0
M  V30 30 Pb -5.3712 3.4557 -2.2270 0
M  V30 31 Pd 3.5298 -5.0430 2.0223 0
M  V30 32 Pb 3.2289 -5.5272 1.1974 0
M  V30 33 Pb 3.8683 -4.5657 2.8391 0
M  V30 34 Pb 4.3371 -4.7307 1.5236 0
M  V30 35 Pb 2.7322 -5.4057 2.5110 0
M  V30 36 Pd 3.7927 0.1029 4.2788 0
M  V30 37 Pb 4.1731 -0.8109 4.4435 0
M  V30 38 Pb 3.3820 0.9962 4.0940 0
M  V30 39 Pb 2.9508 -0.1958 4.7200 0
M  V30 40 Pb 4.6154 0.4113 3.7997 0
M  V30 41 Pd 4.1627 -3.9547 -3.0383 0
M  V30 42 Pb 3.4541 -3.8853 -3.7397 0
M  V30 43 Pb 4.8438 -3.9833 -2.3088 0
M  V30 44 Pb 3.7335 -4.7712 -2.6525 0
M  V30 45 Pb 4.5499 -3.0885 -3.3441 0
M  V30 46 Ag -1.5393 -2.3389 -5.0401 0
M  V30 47 Fe 0.6899 -3.0781 -4.6899 0
M  V30 48 Ag 2.9098 -3.7953 -4.2469 0
M  V30 49 Ag -1.3887 -3.1611 3.8376 0
M  V30 50 Fe 0.4027 -1.7802 4.5440 0
M  V30 51 Ag 2.3073 -0.4468 5.0018 0
M  V30 52 Ag 4.5599 1.8909 -1.5139 0
M  V30 53 Fe 4.7734 -0.1949 -2.6210 0
M  V30 54 Ag 4.8037 -2.4014 -3.4880 0
M  V30 55 Ag -4.8473 4.9536 2.7107 0
M  V30 56 Fe -3.4031 6.5596 1.7861 0
M  V30 57 Ag -1.6071 6.9580 0.3249 0
M  V30 58 Ag -2.3338 -4.8459 0.9505 0
M  V30 59 Fe -2.7542 -4.1594 -1.2826 0
M  V30 60 Ag -3.1123 -3.2204 -3.4333 0
M  V30 61 Ag -2.9050 -2.8030 1.8560 0
M  V30 62 Fe -3.6911 -0.5625 1.7982 0
M  V30 63 Ag -4.5326 1.6544 1.6635 0
M  V30 64 Ba 3.0260 -5.8937 0.5720 0
M  V30 65 Ga 3.2030 -5.6452 -0.8734 0
M  V30 66 Ba 3.4054 -5.3503 -2.3066 0
M  V30 67 Ba -2.7947 -0.1377 -5.0441 0
M  V30 68 Ga -3.2394 1.2117 -4.6395 0
M  V30 69 Ba -3.6924 2.5542 -4.2211 0
M  V30 70 Ba -0.7825 -5.3256 3.0258 0
M  V30 71 Ga 0.6805 -5.5132 2.9282 0
M  V30 72 Ba 2.1412 -5.7267 2.8504 0
M  V30 73 Ba -0.1697 4.2519 -1.3111 0
M  V30 74 Ga 1.0982 3.5108 -1.1725 0
M  V30 75 Ba 2.3516 2.7394 -1.0755 0
M  V30 76 Ba -4.4736 -1.1310 -3.5678 0
M  V30 77 Ga -4.9519 0.2090 -3.1805 0
M  V30 78 Ba -5.4124 1.5572 -2.8005 0
M  V30 79 Ba -6.1134 3.4796 1.2362 0
M  V30 80 Ga -6.0430 3.5400 -0.2409 0
M  V30 81 Ba -5.9113 3.5932 -1.7144 0
M  V30 82 Ba 4.1745 -4.2220 3.4373 0
M  V30 83 Ga 4.2797 -2.8531 3.9915 0
M  V30 84 Ba 4.4192 -1.5073 4.5929 0
M  V30 85 Ba -2.9798 3.4802 2.6206 0
M  V30 86 Ga -1.8900 4.1531 1.8501 0
M  V30 87 Ba -0.8150 4.8311 1.0634 0
M  V30 88 Ba 4.9411 -4.5252 1.1310 0
M  V30 89 Ga 5.1642 -4.2487 -0.2986 0
M  V30 90 Ba 5.3282 -3.9832 -1.7382 0
M  V30 91 Ba 3.0421 3.1271 1.3674 0
M  V30 92 Ga 3.0317 2.4299 2.6663 0
M  V30 93 Ba 3.0751 1.6590 3.9222 0
M  V30 94 Ba 5.1944 2.2041 0.8790 0
M  V30 95 Ga 5.2432 1.4482 2.1466 0
M  V30 96 Ba 5.1960 0.6858 3.4104 0
M  V30 97 Ba -1.6130 6.1422 -2.0120 0
M  V30 98 Ga -2.7717 5.4475 -2.6195 0
M  V30 99 Ba -3.9292 4.7141 -3.1824 0
M  V30 END ATOM
M  V30 BEGIN BOND
M  V30 1 1 1 2
M  V30 2 1 1 3
M  V30 3 1 1 4
M  V30 4 1 1 5
M  V30 5 1 6 7
M  V30 6 1 6 8
M  V30 7 1 6 9
M  V30 8 1 6 10
M  V30 9 1 11 12
M  V30 10 1 11 13
M  V30 11 1 11 14
M  V30 12 1 11 15
M  V30 13 1 16 17
M  V30 14 1 16 18
M  V30 15 1 16 19
M  V30 16 1 16 20
M  V30 17 1 21 22
M  V30 18 1 21 23
M  V30 19 1 21 24
M  V30 20 1 21 25
M  V30 21 1 26 27
M  V30 22 1 26 28
M  V30 23 1 26 29
M  V30 24 1 26 30
M  V30 25 1 31 32
M  V30 26 1 31 33
M  V30 27 1 31 34
M  V30 28 1 31 35
M  V30 29 1 36 37
M  V30 30 1 36 38
M  V30 31 1 36 39
M  V30 32 1 36 40
M  V30 33 1 41 42
M  V30 34 1 41 43
M  V30 35 1 41 44
M  V30 36 1 41 45
M  V30 37 1 46 47
M  V30 38 1 47 48
M  V30 39 1 49 50
M  V30 40 1 50 51
M  V30 41 1 52 53
M  V30 42 1 53 54
M  V30 43 1 55 56
M  V30 44 1 56 57
M  V30 45 1 58 59
M  V30 46 1 59 60
M  V30 47 1 61 62
M  V30 48 1 62 63
M  V30 49 1 64 65
M  V30 50 1 65 66
M  V30 51 1 67 68
M  V30 52 1 68 69
M  V30 53 1 70 71
M  V30 54 1 71 72
M  V30 55 1 73 74
M  V30 56 1 74 75
M  V30 57 1 76 77
M  V30 58 1 77 78
M  V30 59 1 79 80
M  V30 60 1 80 81
M  V30 61 1 82 83
M  V30 62 1 83 84
M  V30 63 1 85 86
M  V30 64 1 86 87
M  V30 65 1 88 89
M  V30 66 1 89 90
M  V30 67 1 91 92
M  V30 68 1 92 93
M  V30 69 1 94 95
M  V30 70 1 95 96
M  V30 71 1 97 98
M  V30 72 1 98 99
M  V30 73 1 2 58
M  V30 74 1 3 70
M  V30 75 1 4 61
M  V30 76 1 5 49
M  V30 77 1 7 55
M  V30 78 1 8 85
M  V30 79 1 9 63
M  V30 80 1 10 79
M  V30 81 1 12 73
M  V30 82 1 13 87
M  V30 83 1 14 97
M  V30 84 1 15 57
M  V30 85 1 17 67
M  V30 86 1 18 46
M  V30 87 1 19 76
M  V30 88 1 20 60
M  V30 89 1 22 94
M  V30 90 1 23 52
M  V30 91 1 24 75
M  V30 92 1 25 91
M  V30 93 1 27 78
M  V30 94 1 28 69
M  V30 95 1 29 99
M  V30 96 1 30 81
M  V30 97 1 32 64
M  V30 98 1 33 82
M  V30 99 1 34 88
M  V30 100 1 35 72
M  V30 101 1 37 84
M  V30 102 1 38 93
M  V30 103 1 39 51
M  V30 104 1 40 96
M  V30 105 1 42 48
M  V30 106 1 43 90
M  V30 107 1 44 66
M  V30 108 1 45 54
M  V30 END BOND
M  V30 END CTAB
M  END

$$$$
