
     RDKit          3D

  0  0  0  0  0  0  0  0  0  0999 V3000
M  V30 BEGIN CTAB
M  V30 COUNTS 99 108 0 0 0
M  V30 BEGIN ATOM
M  V30 1 Pd -1.9465 -3.0879 -0.0288 0
M  V30 2 Pb -2.2982 -2.9981 0.9001 0
M  V30 3 Pb -1.0696 -2.7841 0.3455 0
M  V30 4 Pb -2.8697 -3.2761 -0.3663 0
M  V30 5 Pb -1.6003 -3.0938 -0.9720 0
M  V30 6 Pd 6.2333 -3.7840 3.3489 0
M  V30 7 Pb 6.4426 -2.9418 2.8506 0
M  V30 8 Pb 5.9012 -3.2581 4.1299 0
M  V30 9 Pb 6.4428 -4.2921 2.5154 0
M  V30 10 Pb 5.9479 -4.6162 3.8294 0
M  V30 11 Pd 0.3160 4.9983 0.4836 0
M  V30 12 Pb -0.5964 5.2801 0.7881 0
M  V30 13 Pb 1.2565 4.7567 0.2224 0
M  V30 14 Pb 0.2271 5.6029 -0.3120 0
M  V30 15 Pb 0.3942 4.4307 1.3047 0
M  V30 16 Pd -2.2632 5.0463 -4.3639 0
M  V30 17 Pb -1.7239 5.7165 -3.8521 0
M  V30 18 Pb -2.7995 4.3400 -4.8261 0
M  V30 19 Pb -1.4149 4.6622 -4.7183 0
M  V30 20 Pb -3.1251 5.3660 -3.9718 0
M  V30 21 Pd 4.0157 1.2724 -2.1867 0
M  V30 22 Pb 4.6222 0.8981 -1.4813 0
M  V30 23 Pb 3.8978 2.1017 -1.6316 0
M  V30 24 Pb 3.4599 1.6752 -2.9112 0
M  V30 25 Pb 4.1545 0.4734 -2.7787 0
M  V30 26 Pd -7.5667 1.1043 -1.9862 0
M  V30 27 Pb -7.2026 1.0637 -2.9148 0
M  V30 28 Pb -7.7982 1.2074 -1.0208 0
M  V30 29 Pb -7.4532 0.1153 -1.8850 0
M  V30 30 Pb -7.5427 2.0997 -2.0722 0
M  V30 31 Pd -3.3416 2.7968 3.6215 0
M  V30 32 Pb -3.3412 1.8487 3.9311 0
M  V30 33 Pb -4.3266 2.7134 3.4712 0
M  V30 34 Pb -2.3457 2.8387 3.7090 0
M  V30 35 Pb -3.3308 3.7094 3.2140 0
M  V30 36 Pd 2.6168 -4.1474 -2.8975 0
M  V30 37 Pb 3.1050 -3.4330 -3.4008 0
M  V30 38 Pb 2.1412 -4.8233 -2.3411 0
M  V30 39 Pb 3.4884 -4.5019 -2.5589 0
M  V30 40 Pb 1.7251 -3.7875 -3.1702 0
M  V30 41 Pd 1.7906 -4.3334 4.0505 0
M  V30 42 Pb 2.2396 -3.6848 4.6649 0
M  V30 43 Pb 1.4560 -3.5863 3.4735 0
M  V30 44 Pb 1.4155 -4.9764 3.3893 0
M  V30 45 Pb 2.2959 -5.0663 4.5012 0
M  V30 46 Ag 6.5677 -2.3199 2.4491 0
M  V30 47 Fe 5.8242 -0.8373 0.7461 0
M  V30 48 Ag 5.1034 0.6603 -0.9534 0
M  V30 49 Ag -2.5231 -2.8305 1.5924 0
M  V30 50 Fe -2.9803 -0.9641 2.9813 0
M  V30 51 Ag -3.3500 1.1133 4.0625 0
M  V30 52 Ag -0.7735 4.3483 -4.9353 0
M  V30 53 Fe 1.1608 3.1645 -4.2409 0
M  V30 54 Ag 3.0664 1.9826 -3.4682 0
M  V30 55 Ag -3.2496 3.8055 -5.0982 0
M  V30 56 Fe -5.0555 2.3837 -4.5052 0
M  V30 57 Ag -6.8381 1.1297 -3.5649 0
M  V30 58 Ag -3.8070 5.4921 -3.6881 0
M  V30 59 Fe -5.7096 4.3214 -2.8847 0
M  V30 60 Ag -7.4087 2.8322 -2.1556 0
M  V30 61 Ag 6.5139 -4.6122 1.8426 0
M  V30 62 Fe 5.4206 -4.7726 -0.2584 0
M  V30 63 Ag 4.1192 -4.7574 -2.2438 0
M  V30 64 Ag -3.5816 -3.3335 -0.5985 0
M  V30 65 Fe -5.5006 -2.0800 -1.2243 0
M  V30 66 Ag -7.2734 -0.6095 -1.8077 0
M  V30 67 Ag 1.7980 -5.2744 -1.8566 0
M  V30 68 Fe 1.3814 -5.5171 0.4623 0
M  V30 69 Ag 1.1937 -5.4035 2.8205 0
M  V30 70 Ag -7.8669 1.3513 -0.2897 0
M  V30 71 Fe -6.5759 1.9740 1.6023 0
M  V30 72 Ag -5.0488 2.5900 3.3121 0
M  V30 73 Ba 4.2597 -0.0839 -3.2757 0
M  V30 74 Ga 3.8619 -1.4923 -3.4861 0
M  V30 75 Ba 3.5000 -2.9006 -3.7541 0
M  V30 76 Ba 0.4354 4.0287 1.9380 0
M  V30 77 Ga -0.5680 3.4387 2.8463 0
M  V30 78 Ba -1.5958 2.8601 3.7344 0
M  V30 79 Ba 5.6604 -5.2010 4.2056 0
M  V30 80 Ga 4.2488 -5.4740 4.5387 0
M  V30 81 Ba 2.7929 -5.5612 4.7619 0
M  V30 82 Ba 5.5458 -2.8975 4.6807 0
M  V30 83 Ga 4.1054 -2.9902 4.9732 0
M  V30 84 Ba 2.6567 -3.2292 5.0895 0
M  V30 85 Ba -1.2652 5.5108 1.0442 0
M  V30 86 Ga -2.2893 4.9537 1.9504 0
M  V30 87 Ba -3.2954 4.3690 2.8594 0
M  V30 88 Ba 0.1457 6.0867 -0.8837 0
M  V30 89 Ga -0.5758 6.1292 -2.1730 0
M  V30 90 Ba -1.2889 6.1918 -3.4662 0
M  V30 91 Ba -1.3807 -3.0577 -1.6932 0
M  V30 92 Ga -0.1670 -3.3030 -2.5009 0
M  V30 93 Ba 1.0343 -3.5426 -3.3287 0
M  V30 94 Ba -0.4740 -2.4799 0.6881 0
M  V30 95 Ga 0.4000 -2.7944 1.8375 0
M  V30 96 Ba 1.3094 -3.0413 2.9759 0
M  V30 97 Ba 1.9843 4.6201 0.0742 0
M  V30 98 Ga 2.8643 3.6377 -0.5998 0
M  V30 99 Ba 3.8592 2.7402 -1.2310 0
M  V30 END ATOM
M  V30 BEGIN BOND
M  V30 1 1 1 2
M  V30 2 1 1 3
M  V30 3 1 1 4
M  V30 4 1 1 5
M  V30 5 1 6 7
M  V30 6 1 6 8
M  V30 7 1 6 9
M  V30 8 1 6 10
M  V30 9 1 11 12
M  V30 10 1 11 13
M  V30 11 1 11 14
M  V30 12 1 11 15
M  V30 13 1 16 17
M  V30 14 1 16 18
M  V30 15 1 16 19
M  V30 16 1 16 20
M  V30 17 1 21 22
M  V30 18 1 21 23
M  V30 19 1 21 24
M  V30 20 1 21 25
M  V30 21 1 26 27
M  V30 22 1 26 28
M  V30 23 1 26 29
M  V30 24 1 26 30
M  V30 25 1 31 32
M  V30 26 1 31 33
M  V30 27 1 31 34
M  V30 28 1 31 35
M  V30 29 1 36 37
M  V30 30 1 36 38
M  V30 31 1 36 39
M  V30 32 1 36 40
M  V30 33 1 41 42
M  V30 34 1 41 43
M  V30 35 1 41 44
M  V30 36 1 41 45
M  V30 37 1 46 47
M  V30 38 1 47 48
M  V30 39 1 49 50
M  V30 40 1 50 51
M  V30 41 1 52 53
M  V30 42 1 53 54
M  V30 43 1 55 56
M  V30 44 1 56 57
M  V30 45 1 58 59
M  V30 46 1 59 60
M  V30 47 1 61 62
M  V30 48 1 62 63
M  V30 49 1 64 65
M  V30 50 1 65 66
M  V30 51 1 67 68
M  V30 52 1 68 69
M  V30 53 1 70 71
M  V30 54 1 71 72
M  V30 55 1 73 74
M  V30 56 1 74 75
M  V30 57 1 76 77
M  V30 58 1 77 78
M  V30 59 1 79 80
M  V30 60 1 80 81
M  V30 61 1 82 83
M  V30 62 1 83 84
M  V30 63 1 85 86
M  V30 64 1 86 87
M  V30 65 1 88 89
M  V30 66 1 89 90
M  V30 67 1 91 92
M  V30 68 1 92 93
M  V30 69 1 94 95
M  V30 70 1 95 96
M  V30 71 1 97 98
M  V30 72 1 98 99
M  V30 73 1 2 49
M  V30 74 1 3 94
M  V30 75 1 4 64
M  V30 76 1 5 91
M  V30 77 1 7 46
M  V30 78 1 8 82
M  V30 79 1 9 61
M  V30 80 1 10 79
M  V30 81 1 12 85
M  V30 82 1 13 97
M  V30 83 1 14 88
M  V30 84 1 15 76
M  V30 85 1 17 90
M  V30 86 1 18 55
M  V30 87 1 19 52
M  V30 88 1 20 58
M  V30 89 1 22 48
M  V30 90 1 23 99
M  V30 91 1 24 54
M  V30 92 1 25 73
M  V30 93 1 27 57
M  V30 94 1 28 70
M  V30 95 1 29 66
M  V30 96 1 30 60
M  V30 97 1 32 51
M  V30 98 1 33 72
M  V30 99 1 34 78
M  V30 100 1 35 87
M  V30 101 1 37 75
M  V30 102 1 38 67
M  V30 103 1 39 63
M  V30 104 1 40 93
M  V30 105 1 42 84
M  V30 106 1 43 96
M  V30 107 1 44 69
M  V30 108 1 45 81
M  V30 END BOND
M  V30 END CTAB
M  END

$$$$
