
     RDKit          3D

  0  0  0  0  0  0  0  0  0  0999 V3000
M  V30 BEGIN CTAB
M  V30 COUNTS 99 108 0 0 0
M  V30 BEGIN ATOM
M  V30 1 Pd 2.2865 -1.5109 2.6753 0
M  V30 2 Pb 2.2451 -0.5589 2.9926 0
M  V30 3 Pb 2.1815 -1.8154 3.6216 0
M  V30 4 Pb 2.3799 -1.2038 1.7296 0
M  V30 5 Pb 2.2664 -2.4633 2.3678 0
M  V30 6 Pd 2.4728 -3.3858 -2.8134 0
M  V30 7 Pb 2.4675 -4.0157 -3.5874 0
M  V30 8 Pb 1.4842 -3.2403 -2.9378 0
M  V30 9 Pb 2.4880 -2.6394 -2.1451 0
M  V30 10 Pb 3.4629 -3.3074 -2.8807 0
M  V30 11 Pd 0.3264 0.3568 -5.8688 0
M  V30 12 Pb 0.0980 1.0436 -5.1795 0
M  V30 13 Pb -0.0926 -0.3664 -5.2969 0
M  V30 14 Pb 0.8677 1.0424 -6.3569 0
M  V30 15 Pb 0.5405 -0.3415 -6.5496 0
M  V30 16 Pd 1.8072 3.7864 0.7958 0
M  V30 17 Pb 2.6929 3.3820 0.5747 0
M  V30 18 Pb 0.9537 4.2598 1.0298 0
M  V30 19 Pb 1.8245 4.2723 -0.0820 0
M  V30 20 Pb 1.8147 3.2929 1.6684 0
M  V30 21 Pd -2.9297 0.3456 -1.6186 0
M  V30 22 Pb -3.5187 -0.3586 -1.2186 0
M  V30 23 Pb -3.5692 1.0673 -1.3510 0
M  V30 24 Pb -2.3308 1.0376 -2.0202 0
M  V30 25 Pb -2.2859 -0.3700 -1.8885 0
M  V30 26 Pd 4.2890 2.8707 -3.8065 0
M  V30 27 Pb 3.6897 3.6303 -3.5495 0
M  V30 28 Pb 4.5901 2.7998 -2.8574 0
M  V30 29 Pb 3.9411 2.9037 -4.7476 0
M  V30 30 Pb 4.8560 2.0685 -3.9917 0
M  V30 31 Pd -3.0395 -1.8544 7.3791 0
M  V30 32 Pb -2.8134 -0.9010 7.5737 0
M  V30 33 Pb -3.2089 -2.7650 7.0085 0
M  V30 34 Pb -3.9120 -1.5295 7.0203 0
M  V30 35 Pb -2.1000 -2.1250 7.5703 0
M  V30 36 Pd -1.6807 -4.1959 0.6821 0
M  V30 37 Pb -2.0272 -4.5698 1.5433 0
M  V30 38 Pb -1.3413 -3.7979 -0.1690 0
M  V30 39 Pb -0.7580 -4.5205 0.8931 0
M  V30 40 Pb -2.5836 -3.8120 0.4839 0
M  V30 41 Pd -3.6231 3.4261 2.7845 0
M  V30 42 Pb -2.9319 4.0647 2.4415 0
M  V30 43 Pb -4.3007 2.7868 3.1487 0
M  V30 44 Pb -3.2118 3.4179 3.6966 0
M  V30 45 Pb -4.0538 3.3912 1.8825 0
M  V30 46 Ag -2.6503 -0.1698 7.5749 0
M  V30 47 Fe -2.7311 1.6995 6.1126 0
M  V30 48 Ag -2.9616 3.3269 4.3984 0
M  V30 49 Ag 2.0652 -2.0264 4.3311 0
M  V30 50 Fe 0.4607 -2.2251 6.0670 0
M  V30 51 Ag -1.3730 -2.2931 7.5699 0
M  V30 52 Ag 4.1445 -3.0506 -3.0382 0
M  V30 53 Fe 4.9628 -0.8901 -3.5716 0
M  V30 54 Ag 5.2371 1.4236 -4.0148 0
M  V30 55 Ag -3.2721 -3.3993 6.6176 0
M  V30 56 Fe -2.8332 -4.2410 4.4417 0
M  V30 57 Ag -2.2962 -4.8125 2.2008 0
M  V30 58 Ag 2.4048 -4.2726 -4.2807 0
M  V30 59 Fe 1.6018 -2.9855 -6.0840 0
M  V30 60 Ag 0.7203 -0.9635 -6.9166 0
M  V30 61 Ag -4.4779 -1.2079 6.6523 0
M  V30 62 Fe -4.8088 0.5203 5.0596 0
M  V30 63 Ag -4.7575 2.2977 3.4873 0
M  V30 64 Ba 3.3729 3.1190 0.4051 0
M  V30 65 Ga 4.0971 2.9085 -0.8598 0
M  V30 66 Ba 4.7924 2.7095 -2.1427 0
M  V30 67 Ba 0.3472 4.6803 1.1827 0
M  V30 68 Ga -1.0354 4.5627 1.6921 0
M  V30 69 Ba -2.4282 4.5611 2.1877 0
M  V30 70 Ba -0.0797 1.5548 -4.6612 0
M  V30 71 Ga -0.9760 1.5629 -3.4909 0
M  V30 72 Ba -1.8777 1.5510 -2.3248 0
M  V30 73 Ba 2.2135 -3.1782 2.1438 0
M  V30 74 Ga 1.0990 -3.9757 1.5947 0
M  V30 75 Ba -0.0519 -4.7224 1.0493 0
M  V30 76 Ba 1.8487 4.6364 -0.7411 0
M  V30 77 Ga 2.5331 4.4176 -2.0331 0
M  V30 78 Ba 3.2289 4.1753 -3.3148 0
M  V30 79 Ba 0.7687 -3.0483 -3.1033 0
M  V30 80 Ga 0.1903 -1.9867 -3.9760 0
M  V30 81 Ba -0.3728 -0.9201 -4.8528 0
M  V30 82 Ba -4.0354 1.6241 -1.1608 0
M  V30 83 Ga -4.2115 2.4843 0.0252 0
M  V30 84 Ba -4.3868 3.3438 1.2119 0
M  V30 85 Ba 2.1812 0.1407 3.2673 0
M  V30 86 Ga 2.0182 1.5224 2.7638 0
M  V30 87 Ba 1.8543 2.9256 2.3241 0
M  V30 88 Ba -1.8089 -0.9156 -2.0800 0
M  V30 89 Ga -1.4387 -2.2006 -1.4601 0
M  V30 90 Ba -1.1021 -3.4755 -0.8013 0
M  V30 91 Ba 2.4451 -0.9585 1.0253 0
M  V30 92 Ga 2.4745 -1.5437 -0.3291 0
M  V30 93 Ba 2.5162 -2.0148 -1.7268 0
M  V30 94 Ba -3.9383 -0.9090 -0.9261 0
M  V30 95 Ga -3.6147 -2.2033 -0.2927 0
M  V30 96 Ba -3.2445 -3.4879 0.3347 0
M  V30 97 Ba 1.3318 1.5486 -6.6611 0
M  V30 98 Ga 2.4949 2.2557 -6.0828 0
M  V30 99 Ba 3.6459 2.9272 -5.4410 0
M  V30 END ATOM
M  V30 BEGIN BOND
M  V30 1 1 1 2
M  V30 2 1 1 3
M  V30 3 1 1 4
M  V30 4 1 1 5
M  V30 5 1 6 7
M  V30 6 1 6 8
M  V30 7 1 6 9
M  V30 8 1 6 10
M  V30 9 1 11 12
M  V30 10 1 11 13
M  V30 11 1 11 14
M  V30 12 1 11 15
M  V30 13 1 16 17
M  V30 14 1 16 18
M  V30 15 1 16 19
M  V30 16 1 16 20
M  V30 17 1 21 22
M  V30 18 1 21 23
M  V30 19 1 21 24
M  V30 20 1 21 25
M  V30 21 1 26 27
M  V30 22 1 26 28
M  V30 23 1 26 29
M  V30 24 1 26 30
M  V30 25 1 31 32
M  V30 26 1 31 33
M  V30 27 1 31 34
M  V30 28 1 31 35
M  V30 29 1 36 37
M  V30 30 1 36 38
M  V30 31 1 36 39
M  V30 32 1 36 40
M  V30 33 1 41 42
M  V30 34 1 41 43
M  V30 35 1 41 44
M  V30 36 1 41 45
M  V30 37 1 46 47
M  V30 38 1 47 48
M  V30 39 1 49 50
M  V30 40 1 50 51
M  V30 41 1 52 53
M  V30 42 1 53 54
M  V30 43 1 55 56
M  V30 44 1 56 57
M  V30 45 1 58 59
M  V30 46 1 59 60
M  V30 47 1 61 62
M  V30 48 1 62 63
M  V30 49 1 64 65
M  V30 50 1 65 66
M  V30 51 1 67 68
M  V30 52 1 68 69
M  V30 53 1 70 71
M  V30 54 1 71 72
M  V30 55 1 73 74
M  V30 56 1 74 75
M  V30 57 1 76 77
M  V30 58 1 77 78
M  V30 59 1 79 80
M  V30 60 1 80 81
M  V30 61 1 82 83
M  V30 62 1 83 84
M  V30 63 1 85 86
M  V30 64 1 86 87
M  V30 65 1 88 89
M  V30 66 1 89 90
M  V30 67 1 91 92
M  V30 68 1 92 93
M  V30 69 1 94 95
M  V30 70 1 95 96
M  V30 71 1 97 98
M  V30 72 1 98 99
M  V30 73 1 2 85
M  V30 74 1 3 49
M  V30 75 1 4 91
M  V30 76 1 5 73
M  V30 77 1 7 58
M  V30 78 1 8 79
M  V30 79 1 9 93
M  V30 80 1 10 52
M  V30 81 1 12 70
M  V30 82 1 13 81
M  V30 83 1 14 97
M  V30 84 1 15 60
M  V30 85 1 17 64
M  V30 86 1 18 67
M  V30 87 1 19 76
M  V30 88 1 20 87
M  V30 89 1 22 94
M  V30 90 1 23 82
M  V30 91 1 24 72
M  V30 92 1 25 88
M  V30 93 1 27 78
M  V30 94 1 28 66
M  V30 95 1 29 99
M  V30 96 1 30 54
M  V30 97 1 32 46
M  V30 98 1 33 55
M  V30 99 1 34 61
M  V30 100 1 35 51
M  V30 101 1 37 57
M  V30 102 1 38 90
M  V30 103 1 39 75
M  V30 104 1 40 96
M  V30 105 1 42 69
M  V30 106 1 43 63
M  V30 107 1 44 48
M  V30 108 1 45 84
M  V30 END BOND
M  V30 END CTAB
M  END

$$$$
