
     RDKit          3D

  0  0  0  0  0  0  0  0  0  0999 V3000
M  V30 BEGIN CTAB
M  V30 COUNTS 99 108 0 0 0
M  V30 BEGIN ATOM
M  V30 1 Pd -3.9890 1.4601 1.9156 0
M  V30 2 Pb -4.4067 0.5494 1.8600 0
M  V30 3 Pb -4.5474 1.7813 1.1472 0
M  V30 4 Pb -3.4903 1.1873 2.7373 0
M  V30 5 Pb -3.5370 2.3518 1.9372 0
M  V30 6 Pd 1.1893 1.4401 4.2913 0
M  V30 7 Pb 2.1749 1.5415 4.0980 0
M  V30 8 Pb 1.0088 1.8324 3.3922 0
M  V30 9 Pb 0.2198 1.2712 4.4666 0
M  V30 10 Pb 1.3980 1.0407 5.1842 0
M  V30 11 Pd 5.3487 -0.5013 0.8024 0
M  V30 12 Pb 5.4957 -1.1335 0.0418 0
M  V30 13 Pb 4.9183 0.1615 0.1954 0
M  V30 14 Pb 5.6354 -1.1907 1.4651 0
M  V30 15 Pb 5.1652 0.1271 1.5721 0
M  V30 16 Pd -2.5436 -4.0010 2.4227 0
M  V30 17 Pb -1.8026 -4.6275 2.6618 0
M  V30 18 Pb -2.4245 -4.2761 1.4671 0
M  V30 19 Pb -2.6085 -3.7413 3.3880 0
M  V30 20 Pb -3.3127 -3.3964 2.1923 0
M  V30 21 Pd 3.8209 -0.4197 -4.3112 0
M  V30 22 Pb 4.0741 0.3159 -3.6825 0
M  V30 23 Pb 3.4612 -1.1402 -4.9024 0
M  V30 24 Pb 4.3187 -1.0916 -3.7630 0
M  V30 25 Pb 3.3488 0.2751 -4.8505 0
M  V30 26 Pd 1.3124 -3.5413 5.8369 0
M  V30 27 Pb 0.3300 -3.4369 6.0032 0
M  V30 28 Pb 1.1149 -4.3329 5.2636 0
M  V30 29 Pb 2.2814 -3.6111 5.5983 0
M  V30 30 Pb 1.4982 -2.7185 6.3722 0
M  V30 31 Pd -3.9234 2.3173 -3.6284 0
M  V30 32 Pb -4.1326 1.3507 -3.5206 0
M  V30 33 Pb -3.7458 3.2964 -3.7402 0
M  V30 34 Pb -3.2949 2.0895 -4.3789 0
M  V30 35 Pb -4.5390 2.5075 -2.8639 0
M  V30 36 Pd 0.1779 5.4494 -2.5484 0
M  V30 37 Pb -0.7133 5.7087 -2.9151 0
M  V30 38 Pb 0.4689 5.1537 -3.4550 0
M  V30 39 Pb -0.1558 5.6165 -1.6223 0
M  V30 40 Pb 1.0548 5.1084 -2.2079 0
M  V30 41 Pd -1.2223 -2.1156 -4.8080 0
M  V30 42 Pb -1.2196 -2.9444 -4.2515 0
M  V30 43 Pb -1.2607 -1.2394 -5.2955 0
M  V30 44 Pb -2.1167 -1.9262 -4.4139 0
M  V30 45 Pb -0.3356 -2.3431 -5.2193 0
M  V30 46 Ag -2.2732 -4.5089 0.7685 0
M  V30 47 Fe -1.7756 -4.0631 -1.5111 0
M  V30 48 Ag -1.2914 -3.5140 -3.7709 0
M  V30 49 Ag -3.1768 3.0087 1.9063 0
M  V30 50 Fe -1.8096 4.4236 0.5778 0
M  V30 51 Ag -0.4552 5.6505 -0.9373 0
M  V30 52 Ag 1.0341 2.0699 2.6870 0
M  V30 53 Fe 2.5617 1.6404 0.9371 0
M  V30 54 Ag 4.4447 0.6557 -0.0934 0
M  V30 55 Ag 3.0142 0.8492 -5.1942 0
M  V30 56 Fe 1.8410 2.8740 -4.8088 0
M  V30 57 Ag 0.6986 4.8213 -4.0830 0
M  V30 58 Ag 4.1581 0.9060 -3.2268 0
M  V30 59 Fe 3.0533 2.8877 -2.5227 0
M  V30 60 Ag 1.7061 4.7811 -2.0289 0
M  V30 61 Ag 5.7291 -1.6907 2.0139 0
M  V30 62 Fe 4.4919 -2.7494 3.7414 0
M  V30 63 Ag 2.9918 -3.6290 5.3577 0
M  V30 64 Ba -4.2910 0.6270 -3.4440 0
M  V30 65 Ga -3.5539 -0.5994 -3.7720 0
M  V30 66 Ba -2.7882 -1.8046 -4.1130 0
M  V30 67 Ba -1.2536 -5.1008 2.8518 0
M  V30 68 Ga -0.1468 -5.0329 3.8204 0
M  V30 69 Ba 0.9372 -4.8971 4.8072 0
M  V30 70 Ba -4.9960 2.0654 0.6133 0
M  V30 71 Ga -4.9748 2.3299 -0.8395 0
M  V30 72 Ba -5.0070 2.6158 -2.2881 0
M  V30 73 Ba 5.5854 -1.6081 -0.5318 0
M  V30 74 Ga 5.1509 -1.6057 -1.9412 0
M  V30 75 Ba 4.7055 -1.5812 -3.3470 0
M  V30 76 Ba -2.6130 -3.5677 4.1196 0
M  V30 77 Ga -1.5343 -3.4516 5.1231 0
M  V30 78 Ba -0.4129 -3.3504 6.0804 0
M  V30 79 Ba 1.5528 0.7269 5.8478 0
M  V30 80 Ga 1.5989 -0.6683 6.3221 0
M  V30 81 Ba 1.6300 -2.0810 6.7428 0
M  V30 82 Ba -3.6312 4.0351 -3.8156 0
M  V30 83 Ga -2.5220 4.9591 -3.5152 0
M  V30 84 Ba -1.3898 5.8501 -3.2011 0
M  V30 85 Ba 3.1352 -1.6662 -5.3249 0
M  V30 86 Ga 1.7297 -2.1066 -5.4389 0
M  V30 87 Ba 0.3193 -2.5339 -5.5397 0
M  V30 88 Ba 2.9169 1.6208 3.9573 0
M  V30 89 Ga 3.9477 1.0826 3.0297 0
M  V30 90 Ba 5.0489 0.6065 2.1504 0
M  V30 91 Ba -4.7191 -0.1334 1.7990 0
M  V30 92 Ga -4.2822 -1.5423 1.9248 0
M  V30 93 Ba -3.9170 -2.9729 2.0330 0
M  V30 94 Ba -2.8237 1.8950 -4.9362 0
M  V30 95 Ga -2.0672 0.6706 -5.2878 0
M  V30 96 Ba -1.3182 -0.5629 -5.6230 0
M  V30 97 Ba -3.1578 1.0098 3.3848 0
M  V30 98 Ga -1.8069 1.0653 3.9728 0
M  V30 99 Ba -0.4885 1.0897 4.6323 0
M  V30 END ATOM
M  V30 BEGIN BOND
M  V30 1 1 1 2
M  V30 2 1 1 3
M  V30 3 1 1 4
M  V30 4 1 1 5
M  V30 5 1 6 7
M  V30 6 1 6 8
M  V30 7 1 6 9
M  V30 8 1 6 10
M  V30 9 1 11 12
M  V30 10 1 11 13
M  V30 11 1 11 14
M  V30 12 1 11 15
M  V30 13 1 16 17
M  V30 14 1 16 18
M  V30 15 1 16 19
M  V30 16 1 16 20
M  V30 17 1 21 22
M  V30 18 1 21 23
M  V30 19 1 21 24
M  V30 20 1 21 25
M  V30 21 1 26 27
M  V30 22 1 26 28
M  V30 23 1 26 29
M  V30 24 1 26 30
M  V30 25 1 31 32
M  V30 26 1 31 33
M  V30 27 1 31 34
M  V30 28 1 31 35
M  V30 29 1 36 37
M  V30 30 1 36 38
M  V30 31 1 36 39
M  V30 32 1 36 40
M  V30 33 1 41 42
M  V30 34 1 41 43
M  V30 35 1 41 44
M  V30 36 1 41 45
M  V30 37 1 46 47
M  V30 38 1 47 48
M  V30 39 1 49 50
M  V30 40 1 50 51
M  V30 41 1 52 53
M  V30 42 1 53 54
M  V30 43 1 55 56
M  V30 44 1 56 57
M  V30 45 1 58 59
M  V30 46 1 59 60
M  V30 47 1 61 62
M  V30 48 1 62 63
M  V30 49 1 64 65
M  V30 50 1 65 66
M  V30 51 1 67 68
M  V30 52 1 68 69
M  V30 53 1 70 71
M  V30 54 1 71 72
M  V30 55 1 73 74
M  V30 56 1 74 75
M  V30 57 1 76 77
M  V30 58 1 77 78
M  V30 59 1 79 80
M  V30 60 1 80 81
M  V30 61 1 82 83
M  V30 62 1 83 84
M  V30 63 1 85 86
M  V30 64 1 86 87
M  V30 65 1 88 89
M  V30 66 1 89 90
M  V30 67 1 91 92
M  V30 68 1 92 93
M  V30 69 1 94 95
M  V30 70 1 95 96
M  V30 71 1 97 98
M  V30 72 1 98 99
M  V30 73 1 2 91
M  V30 74 1 3 70
M  V30 75 1 4 97
M  V30 76 1 5 49
M  V30 77 1 7 88
M  V30 78 1 8 52
M  V30 79 1 9 99
M  V30 80 1 10 79
M  V30 81 1 12 73
M  V30 82 1 13 54
M  V30 83 1 14 61
M  V30 84 1 15 90
M  V30 85 1 17 67
M  V30 86 1 18 46
M  V30 87 1 19 76
M  V30 88 1 20 93
M  V30 89 1 22 58
M  V30 90 1 23 85
M  V30 91 1 24 75
M  V30 92 1 25 55
M  V30 93 1 27 78
M  V30 94 1 28 69
M  V30 95 1 29 63
M  V30 96 1 30 81
M  V30 97 1 32 64
M  V30 98 1 33 82
M  V30 99 1 34 94
M  V30 100 1 35 72
M  V30 101 1 37 84
M  V30 102 1 38 57
M  V30 103 1 39 51
M  V30 104 1 40 60
M  V30 105 1 42 48
M  V30 106 1 43 96
M  V30 107 1 44 66
M  V30 108 1 45 87
M  V30 END BOND
M  V30 END CTAB
M  END

$$$$
