
     RDKit          3D

  0  0  0  0  0  0  0  0  0  0999 V3000
M  V30 BEGIN CTAB
M  V30 COUNTS 99 108 0 0 0
M  V30 BEGIN ATOM
M  V30 1 Pd -7.2952 5.6838 2.1604 0
M  V30 2 Pb -7.6064 4.8710 1.6676 0
M  V30 3 Pb -7.7997 6.2973 1.5493 0
M  V30 4 Pb -6.4743 5.2133 2.4909 0
M  V30 5 Pb -6.9836 6.4905 2.6504 0
M  V30 6 Pd 0.8712 1.6869 1.1617 0
M  V30 7 Pb 1.7088 2.0005 0.7169 0
M  V30 8 Pb 0.0014 1.3571 1.5294 0
M  V30 9 Pb 0.5504 2.6362 1.1636 0
M  V30 10 Pb 1.2023 0.7433 1.1452 0
M  V30 11 Pd 4.4673 -5.5805 -1.1006 0
M  V30 12 Pb 4.0020 -4.7283 -1.3397 0
M  V30 13 Pb 5.3447 -5.1042 -1.1591 0
M  V30 14 Pb 4.9031 -6.4455 -0.8410 0
M  V30 15 Pb 3.6073 -6.0109 -0.8353 0
M  V30 16 Pd 6.1143 -3.8237 3.0041 0
M  V30 17 Pb 6.5963 -3.6342 2.1447 0
M  V30 18 Pb 6.9580 -4.1306 3.4397 0
M  V30 19 Pb 5.2595 -3.5293 2.5765 0
M  V30 20 Pb 5.6046 -4.1392 3.8247 0
M  V30 21 Pd -5.6275 -1.0093 -1.3450 0
M  V30 22 Pb -6.0529 -1.0894 -2.2419 0
M  V30 23 Pb -5.1452 -0.8662 -0.4802 0
M  V30 24 Pb -6.3330 -0.3645 -1.0517 0
M  V30 25 Pb -4.9013 -1.6412 -1.6641 0
M  V30 26 Pd -2.9012 8.3093 -0.9891 0
M  V30 27 Pb -2.4027 7.6429 -0.4307 0
M  V30 28 Pb -2.7426 7.7869 -1.8272 0
M  V30 29 Pb -3.7274 8.7331 -1.3662 0
M  V30 30 Pb -3.0603 8.8296 -0.1574 0
M  V30 31 Pd -1.0792 -1.5346 -4.8820 0
M  V30 32 Pb -1.6392 -2.0837 -4.2432 0
M  V30 33 Pb -0.5619 -0.8786 -5.4295 0
M  V30 34 Pb -1.8724 -1.4679 -5.4809 0
M  V30 35 Pb -0.2960 -1.6011 -4.2638 0
M  V30 36 Pd 4.5226 -8.6050 4.8206 0
M  V30 37 Pb 5.4123 -8.6564 5.2691 0
M  V30 38 Pb 4.8213 -9.2515 4.1247 0
M  V30 39 Pb 3.6863 -8.4936 4.2839 0
M  V30 40 Pb 4.3538 -7.7279 5.2868 0
M  V30 41 Pd 0.8872 4.8037 -2.7471 0
M  V30 42 Pb 0.6288 5.1117 -1.8322 0
M  V30 43 Pb 0.0637 5.2208 -3.1323 0
M  V30 44 Pb 1.0828 4.3787 -3.6303 0
M  V30 45 Pb 1.6976 4.3766 -2.3457 0
M  V30 46 Ag -0.6581 1.0731 1.7472 0
M  V30 47 Fe -2.7331 0.1682 1.0273 0
M  V30 48 Ag -4.7542 -0.7111 0.1414 0
M  V30 49 Ag -5.7430 5.0345 2.5537 0
M  V30 50 Fe -3.7923 5.8704 1.4662 0
M  V30 51 Ag -2.2902 7.0938 0.0757 0
M  V30 52 Ag -7.9159 6.8142 1.0108 0
M  V30 53 Fe -6.4153 8.0239 -0.3934 0
M  V30 54 Ag -4.4624 8.8802 -1.4607 0
M  V30 55 Ag -7.8413 4.2570 1.3062 0
M  V30 56 Fe -7.3585 2.1935 0.2342 0
M  V30 57 Ag -6.8487 0.1339 -0.8328 0
M  V30 58 Ag 5.1414 -7.1159 -0.5950 0
M  V30 59 Fe 5.2098 -8.5213 1.3189 0
M  V30 60 Ag 5.0631 -9.5163 3.4699 0
M  V30 61 Ag -6.1907 -1.1327 -2.9699 0
M  V30 62 Fe -4.6783 -1.2886 -4.7734 0
M  V30 63 Ag -2.5506 -1.4351 -5.7819 0
M  V30 64 Ag -6.6591 7.1056 2.9048 0
M  V30 65 Fe -4.9310 8.4480 2.0306 0
M  V30 66 Ag -3.2806 9.1185 0.4879 0
M  V30 67 Ag 3.0520 -6.3520 -0.4695 0
M  V30 68 Fe 2.8323 -7.4270 1.6340 0
M  V30 69 Ag 3.1388 -8.3822 3.7844 0
M  V30 70 Ag 3.6584 -4.0840 -1.5107 0
M  V30 71 Fe 1.9689 -2.8768 -2.6633 0
M  V30 72 Ag 0.2924 -1.6370 -3.8002 0
M  V30 73 Ag 1.4410 0.0323 1.1297 0
M  V30 74 Fe 3.0381 -1.6314 1.6975 0
M  V30 75 Ag 4.6184 -3.3158 2.2510 0
M  V30 76 Ag 7.4808 -4.4910 3.8264 0
M  V30 77 Fe 7.3310 -6.5777 4.9119 0
M  V30 78 Ag 6.1074 -8.5086 5.4833 0
M  V30 79 Ag -0.1767 -0.3128 -5.7330 0
M  V30 80 Fe 0.5861 1.8642 -5.1743 0
M  V30 81 Ag 1.1658 3.9747 -4.2558 0
M  V30 82 Ba -2.6211 7.4038 -2.4607 0
M  V30 83 Ga -1.5880 6.4645 -2.9369 0
M  V30 84 Ba -0.5588 5.5246 -3.4204 0
M  V30 85 Ba 2.2979 2.2554 0.3310 0
M  V30 86 Ga 2.3467 3.1506 -0.8392 0
M  V30 87 Ba 2.2812 4.0516 -2.0043 0
M  V30 88 Ba 5.9760 -4.7046 -1.0850 0
M  V30 89 Ga 6.5112 -4.0998 0.1538 0
M  V30 90 Ba 6.9195 -3.5583 1.4681 0
M  V30 91 Ba 0.3477 3.3600 1.1342 0
M  V30 92 Ga 0.3656 4.3475 0.0367 0
M  V30 93 Ba 0.4213 5.2554 -1.1263 0
M  V30 94 Ba 5.2221 -4.3964 4.4371 0
M  V30 95 Ga 4.7568 -5.7057 4.9863 0
M  V30 96 Ba 4.2898 -7.0131 5.5386 0
M  V30 97 Ba -4.3787 -2.1442 -1.9034 0
M  V30 98 Ga -3.2235 -2.2578 -2.8396 0
M  V30 99 Ba -2.0575 -2.4776 -3.7431 0
M  V30 END ATOM
M  V30 BEGIN BOND
M  V30 1 1 1 2
M  V30 2 1 1 3
M  V30 3 1 1 4
M  V30 4 1 1 5
M  V30 5 1 6 7
M  V30 6 1 6 8
M  V30 7 1 6 9
M  V30 8 1 6 10
M  V30 9 1 11 12
M  V30 10 1 11 13
M  V30 11 1 11 14
M  V30 12 1 11 15
M  V30 13 1 16 17
M  V30 14 1 16 18
M  V30 15 1 16 19
M  V30 16 1 16 20
M  V30 17 1 21 22
M  V30 18 1 21 23
M  V30 19 1 21 24
M  V30 20 1 21 25
M  V30 21 1 26 27
M  V30 22 1 26 28
M  V30 23 1 26 29
M  V30 24 1 26 30
M  V30 25 1 31 32
M  V30 26 1 31 33
M  V30 27 1 31 34
M  V30 28 1 31 35
M  V30 29 1 36 37
M  V30 30 1 36 38
M  V30 31 1 36 39
M  V30 32 1 36 40
M  V30 33 1 41 42
M  V30 34 1 41 43
M  V30 35 1 41 44
M  V30 36 1 41 45
M  V30 37 1 46 47
M  V30 38 1 47 48
M  V30 39 1 49 50
M  V30 40 1 50 51
M  V30 41 1 52 53
M  V30 42 1 53 54
M  V30 43 1 55 56
M  V30 44 1 56 57
M  V30 45 1 58 59
M  V30 46 1 59 60
M  V30 47 1 61 62
M  V30 48 1 62 63
M  V30 49 1 64 65
M  V30 50 1 65 66
M  V30 51 1 67 68
M  V30 52 1 68 69
M  V30 53 1 70 71
M  V30 54 1 71 72
M  V30 55 1 73 74
M  V30 56 1 74 75
M  V30 57 1 76 77
M  V30 58 1 77 78
M  V30 59 1 79 80
M  V30 60 1 80 81
M  V30 61 1 82 83
M  V30 62 1 83 84
M  V30 63 1 85 86
M  V30 64 1 86 87
M  V30 65 1 88 89
M  V30 66 1 89 90
M  V30 67 1 91 92
M  V30 68 1 92 93
M  V30 69 1 94 95
M  V30 70 1 95 96
M  V30 71 1 97 98
M  V30 72 1 98 99
M  V30 73 1 2 55
M  V30 74 1 3 52
M  V30 75 1 4 49
M  V30 76 1 5 64
M  V30 77 1 7 85
M  V30 78 1 8 46
M  V30 79 1 9 91
M  V30 80 1 10 73
M  V30 81 1 12 70
M  V30 82 1 13 88
M  V30 83 1 14 58
M  V30 84 1 15 67
M  V30 85 1 17 90
M  V30 86 1 18 76
M  V30 87 1 19 75
M  V30 88 1 20 94
M  V30 89 1 22 61
M  V30 90 1 23 48
M  V30 91 1 24 57
M  V30 92 1 25 97
M  V30 93 1 27 51
M  V30 94 1 28 82
M  V30 95 1 29 54
M  V30 96 1 30 66
M  V30 97 1 32 99
M  V30 98 1 33 79
M  V30 99 1 34 63
M  V30 100 1 35 72
M  V30 101 1 37 78
M  V30 102 1 38 60
M  V30 103 1 39 69
M  V30 104 1 40 96
M  V30 105 1 42 93
M  V30 106 1 43 84
M  V30 107 1 44 81
M  V30 108 1 45 87
M  V30 END BOND
M  V30 END CTAB
M  END

$$$$
