
     RDKit          3D

  0  0  0  0  0  0  0  0  0  0999 V3000
M  V30 BEGIN CTAB
M  V30 COUNTS 99 108 0 0 0
M  V30 BEGIN ATOM
M  V30 1 Pd 5.7976 -2.3566 -2.0351 0
M  V30 2 Pb 5.0756 -2.2417 -1.3485 0
M  V30 3 Pb 5.7195 -3.3397 -1.9045 0
M  V30 4 Pb 5.7883 -1.3664 -2.2498 0
M  V30 5 Pb 6.4225 -2.4947 -2.7978 0
M  V30 6 Pd 3.5750 1.3071 -5.8413 0
M  V30 7 Pb 2.9320 1.9126 -5.3396 0
M  V30 8 Pb 4.1935 1.2920 -5.0386 0
M  V30 9 Pb 4.2384 0.7488 -6.3315 0
M  V30 10 Pb 2.9194 1.2256 -6.5834 0
M  V30 11 Pd 1.9730 2.3509 5.6335 0
M  V30 12 Pb 2.1568 3.0747 4.9728 0
M  V30 13 Pb 1.2283 2.9074 6.0112 0
M  V30 14 Pb 1.8538 1.6501 6.3295 0
M  V30 15 Pb 2.6773 1.7681 5.1933 0
M  V30 16 Pd -1.9089 3.5912 -4.2100 0
M  V30 17 Pb -1.8224 4.2452 -3.4617 0
M  V30 18 Pb -2.9078 3.6599 -4.1685 0
M  V30 19 Pb -0.8956 3.5199 -4.2245 0
M  V30 20 Pb -1.9633 3.0225 -5.0230 0
M  V30 21 Pd 0.5605 -6.7518 0.6952 0
M  V30 22 Pb 1.1322 -6.8281 1.5099 0
M  V30 23 Pb -0.2818 -6.7312 1.2292 0
M  V30 24 Pb 1.4015 -6.7866 0.1622 0
M  V30 25 Pb -0.0056 -6.5585 -0.1085 0
M  V30 26 Pd -1.1613 5.7970 3.2098 0
M  V30 27 Pb -1.1384 6.0729 2.2530 0
M  V30 28 Pb -1.1769 5.4859 4.1636 0
M  V30 29 Pb -2.1560 5.8527 3.1315 0
M  V30 30 Pb -0.1679 5.7204 3.2165 0
M  V30 31 Pd -6.4569 2.4663 -0.8044 0
M  V30 32 Pb -6.5703 1.5456 -1.2292 0
M  V30 33 Pb -6.8911 2.1320 0.0219 0
M  V30 34 Pb -6.2947 3.3192 -0.3075 0
M  V30 35 Pb -6.1076 2.8429 -1.6682 0
M  V30 36 Pd -5.8379 -3.4330 -0.1273 0
M  V30 37 Pb -6.4714 -3.1216 0.5693 0
M  V30 38 Pb -6.1266 -2.6661 -0.7359 0
M  V30 39 Pb -5.1629 -3.7726 -0.7850 0
M  V30 40 Pb -5.4953 -4.1255 0.5038 0
M  V30 41 Pd 3.5364 -3.0176 3.4918 0
M  V30 42 Pb 3.3407 -3.9991 3.4031 0
M  V30 43 Pb 3.4838 -2.8455 2.5043 0
M  V30 44 Pb 3.7450 -2.0337 3.6329 0
M  V30 45 Pb 3.4740 -3.1251 4.4785 0
M  V30 46 Ag -0.9526 -6.6974 1.5571 0
M  V30 47 Fe -3.1076 -5.7237 1.3783 0
M  V30 48 Ag -5.1609 -4.6126 0.9614 0
M  V30 49 Ag -7.2161 1.7900 0.5901 0
M  V30 50 Fe -7.3569 -0.4633 1.2465 0
M  V30 51 Ag -6.8920 -2.7597 1.0555 0
M  V30 52 Ag -0.4774 -6.3425 -0.6530 0
M  V30 53 Fe -2.5376 -5.2273 -1.0600 0
M  V30 54 Ag -4.6184 -4.0851 -1.1992 0
M  V30 55 Ag 2.3205 1.1643 -7.0152 0
M  V30 56 Fe 0.0584 1.7523 -6.6994 0
M  V30 57 Ag -1.8573 2.6431 -5.6507 0
M  V30 58 Ag -2.8810 5.8980 2.9448 0
M  V30 59 Fe -4.5849 4.9590 1.5814 0
M  V30 60 Ag -6.1607 3.8922 0.1590 0
M  V30 61 Ag 1.8728 1.0518 6.7682 0
M  V30 62 Fe 2.5473 -1.1802 6.4104 0
M  V30 63 Ag 3.3224 -3.0503 5.2001 0
M  V30 64 Ag 6.7383 -2.4975 -3.4684 0
M  V30 65 Fe 6.1000 -1.2635 -5.3730 0
M  V30 66 Ag 4.7895 0.3026 -6.5523 0
M  V30 67 Ag -1.7154 4.7729 -2.9427 0
M  V30 68 Fe -1.4377 5.5097 -0.7056 0
M  V30 69 Ag -1.1616 6.2530 1.5295 0
M  V30 70 Ag 5.5588 -4.0622 -1.8230 0
M  V30 71 Fe 3.8748 -5.5301 -1.0339 0
M  V30 72 Ag 2.0638 -6.7984 -0.1819 0
M  V30 73 Ba 0.6517 3.3292 6.2512 0
M  V30 74 Ga -0.2558 4.2874 5.5804 0
M  V30 75 Ba -1.1435 5.2392 4.8750 0
M  V30 76 Ba 2.5169 2.4123 -4.9359 0
M  V30 77 Ga 1.1384 2.8905 -4.6232 0
M  V30 78 Ba -0.1327 3.5257 -4.1676 0
M  V30 79 Ba 1.6030 -6.8341 2.0922 0
M  V30 80 Ga 2.3981 -5.7752 2.7485 0
M  V30 81 Ba 3.2092 -4.7423 3.4265 0
M  V30 82 Ba -3.6566 3.7241 -4.1437 0
M  V30 83 Ga -4.7531 3.4071 -3.2024 0
M  V30 84 Ba -5.9235 3.1342 -2.3398 0
M  V30 85 Ba 3.2186 1.3621 4.8381 0
M  V30 86 Ga 3.5120 -0.0042 4.3137 0
M  V30 87 Ba 3.9586 -1.3068 3.7379 0
M  V30 88 Ba 5.7857 -0.6238 -2.4268 0
M  V30 89 Ga 5.1945 0.2898 -3.4479 0
M  V30 90 Ba 4.6485 1.2762 -4.4256 0
M  V30 91 Ba 2.3016 3.6380 4.5036 0
M  V30 92 Ga 1.4595 4.6456 3.8426 0
M  V30 93 Ba 0.5727 5.6296 3.2051 0
M  V30 94 Ba -6.6612 0.8562 -1.5598 0
M  V30 95 Ga -6.4758 -0.6107 -1.3100 0
M  V30 96 Ba -6.3487 -2.1014 -1.2105 0
M  V30 97 Ba 4.4691 -2.1865 -0.9057 0
M  V30 98 Ga 4.0020 -2.4410 0.4746 0
M  V30 99 Ba 3.3577 -2.6319 1.7923 0
M  V30 END ATOM
M  V30 BEGIN BOND
M  V30 1 1 1 2
M  V30 2 1 1 3
M  V30 3 1 1 4
M  V30 4 1 1 5
M  V30 5 1 6 7
M  V30 6 1 6 8
M  V30 7 1 6 9
M  V30 8 1 6 10
M  V30 9 1 11 12
M  V30 10 1 11 13
M  V30 11 1 11 14
M  V30 12 1 11 15
M  V30 13 1 16 17
M  V30 14 1 16 18
M  V30 15 1 16 19
M  V30 16 1 16 20
M  V30 17 1 21 22
M  V30 18 1 21 23
M  V30 19 1 21 24
M  V30 20 1 21 25
M  V30 21 1 26 27
M  V30 22 1 26 28
M  V30 23 1 26 29
M  V30 24 1 26 30
M  V30 25 1 31 32
M  V30 26 1 31 33
M  V30 27 1 31 34
M  V30 28 1 31 35
M  V30 29 1 36 37
M  V30 30 1 36 38
M  V30 31 1 36 39
M  V30 32 1 36 40
M  V30 33 1 41 42
M  V30 34 1 41 43
M  V30 35 1 41 44
M  V30 36 1 41 45
M  V30 37 1 46 47
M  V30 38 1 47 48
M  V30 39 1 49 50
M  V30 40 1 50 51
M  V30 41 1 52 53
M  V30 42 1 53 54
M  V30 43 1 55 56
M  V30 44 1 56 57
M  V30 45 1 58 59
M  V30 46 1 59 60
M  V30 47 1 61 62
M  V30 48 1 62 63
M  V30 49 1 64 65
M  V30 50 1 65 66
M  V30 51 1 67 68
M  V30 52 1 68 69
M  V30 53 1 70 71
M  V30 54 1 71 72
M  V30 55 1 73 74
M  V30 56 1 74 75
M  V30 57 1 76 77
M  V30 58 1 77 78
M  V30 59 1 79 80
M  V30 60 1 80 81
M  V30 61 1 82 83
M  V30 62 1 83 84
M  V30 63 1 85 86
M  V30 64 1 86 87
M  V30 65 1 88 89
M  V30 66 1 89 90
M  V30 67 1 91 92
M  V30 68 1 92 93
M  V30 69 1 94 95
M  V30 70 1 95 96
M  V30 71 1 97 98
M  V30 72 1 98 99
M  V30 73 1 2 97
M  V30 74 1 3 70
M  V30 75 1 4 88
M  V30 76 1 5 64
M  V30 77 1 7 76
M  V30 78 1 8 90
M  V30 79 1 9 66
M  V30 80 1 10 55
M  V30 81 1 12 91
M  V30 82 1 13 73
M  V30 83 1 14 61
M  V30 84 1 15 85
M  V30 85 1 17 67
M  V30 86 1 18 82
M  V30 87 1 19 78
M  V30 88 1 20 57
M  V30 89 1 22 79
M  V30 90 1 23 46
M  V30 91 1 24 72
M  V30 92 1 25 52
M  V30 93 1 27 69
M  V30 94 1 28 75
M  V30 95 1 29 58
M  V30 96 1 30 93
M  V30 97 1 32 94
M  V30 98 1 33 49
M  V30 99 1 34 60
M  V30 100 1 35 84
M  V30 101 1 37 51
M  V30 102 1 38 96
M  V30 103 1 39 54
M  V30 104 1 40 48
M  V30 105 1 42 81
M  V30 106 1 43 99
M  V30 107 1 44 87
M  V30 108 1 45 63
M  V30 END BOND
M  V30 END CTAB
M  END

$$$$
