
     RDKit          3D

  0  0  0  0  0  0  0  0  0  0999 V3000
M  V30 BEGIN CTAB
M  V30 COUNTS 99 108 0 0 0
M  V30 BEGIN ATOM
M  V30 1 Pd -2.0437 -6.6220 1.0505 0
M  V30 2 Pb -1.4901 -5.8674 1.4017 0
M  V30 3 Pb -2.4873 -7.4082 0.6271 0
M  V30 4 Pb -2.2133 -6.1121 0.2062 0
M  V30 5 Pb -1.5806 -7.2575 1.6698 0
M  V30 6 Pd 2.0445 -8.9065 -2.5045 0
M  V30 7 Pb 2.7660 -8.2458 -2.2991 0
M  V30 8 Pb 2.2371 -9.3909 -1.6502 0
M  V30 9 Pb 1.2490 -9.4960 -2.6221 0
M  V30 10 Pb 1.6046 -8.2454 -3.1137 0
M  V30 11 Pd -1.9466 2.9049 3.3878 0
M  V30 12 Pb -1.2005 3.1146 4.0104 0
M  V30 13 Pb -1.1776 2.2468 3.5019 0
M  V30 14 Pb -2.8203 3.1515 2.9683 0
M  V30 15 Pb -1.4763 3.4261 2.6763 0
M  V30 16 Pd 5.0772 4.8545 2.5374 0
M  V30 17 Pb 4.7130 4.2712 1.8117 0
M  V30 18 Pb 4.6860 4.2488 3.2314 0
M  V30 19 Pb 5.1957 5.6048 1.8859 0
M  V30 20 Pb 5.3765 5.4659 3.2670 0
M  V30 21 Pd 1.8325 6.8279 3.2971 0
M  V30 22 Pb 2.4734 7.2316 3.9467 0
M  V30 23 Pb 1.7014 6.0641 3.9303 0
M  V30 24 Pb 2.2111 7.4200 2.5847 0
M  V30 25 Pb 1.2431 6.3815 2.6241 0
M  V30 26 Pd 1.4896 -3.7776 -1.5771 0
M  V30 27 Pb 0.5219 -3.6331 -1.7838 0
M  V30 28 Pb 2.2743 -4.3963 -1.4918 0
M  V30 29 Pb 1.2516 -3.8263 -0.6044 0
M  V30 30 Pb 2.3851 -3.4087 -1.3261 0
M  V30 31 Pd 3.2865 -0.2772 2.1609 0
M  V30 32 Pb 3.3072 0.5175 1.5550 0
M  V30 33 Pb 3.3691 0.3358 2.9392 0
M  V30 34 Pb 2.4518 0.0396 2.6510 0
M  V30 35 Pb 3.7119 -0.8199 1.4367 0
M  V30 36 Pd -6.1232 4.7266 -2.9215 0
M  V30 37 Pb -6.1735 4.8709 -3.9040 0
M  V30 38 Pb -6.0670 4.5678 -1.9357 0
M  V30 39 Pb -5.1400 4.9098 -2.9831 0
M  V30 40 Pb -6.9450 4.1588 -3.0010 0
M  V30 41 Pd -4.0552 -0.1791 -5.6798 0
M  V30 42 Pb -5.0271 -0.3908 -5.5589 0
M  V30 43 Pb -3.2221 0.3602 -5.5413 0
M  V30 44 Pb -3.7889 -0.8355 -4.9739 0
M  V30 45 Pb -4.3240 0.4831 -6.3711 0
M  V30 46 Ag -2.1362 -5.8848 -0.5067 0
M  V30 47 Fe -0.6197 -6.5729 -2.2057 0
M  V30 48 Ag 1.1305 -7.7102 -3.3473 0
M  V30 49 Ag -0.5773 3.1878 4.4053 0
M  V30 50 Fe 1.5583 2.1971 4.2728 0
M  V30 51 Ag 3.3098 0.8239 3.4941 0
M  V30 52 Ag -3.4757 3.3366 2.6541 0
M  V30 53 Fe -4.7499 3.8926 0.7286 0
M  V30 54 Ag -6.0250 4.4487 -1.1964 0
M  V30 55 Ag -0.2038 -3.5247 -1.9391 0
M  V30 56 Fe -1.8967 -2.4264 -3.1916 0
M  V30 57 Ag -3.5890 -1.3276 -4.4444 0
M  V30 58 Ag -7.3751 3.5649 -3.1810 0
M  V30 59 Fe -6.8707 1.4995 -4.2594 0
M  V30 60 Ag -5.7472 -0.2969 -5.3522 0
M  V30 61 Ag -4.4126 4.7975 -3.1518 0
M  V30 62 Fe -3.2853 2.9913 -4.2242 0
M  V30 63 Ag -2.7848 0.9358 -5.3232 0
M  V30 64 Ag -1.0915 -7.7760 1.9099 0
M  V30 65 Fe 0.6675 -8.9035 0.7722 0
M  V30 66 Ag 2.1751 -9.6016 -0.9307 0
M  V30 67 Ag -6.1535 4.8404 -4.6440 0
M  V30 68 Fe -5.4373 3.1537 -6.1267 0
M  V30 69 Ag -4.5608 1.0617 -6.7686 0
M  V30 70 Ag -2.6473 -8.0126 0.2232 0
M  V30 71 Fe -1.3283 -9.2394 -1.3071 0
M  V30 72 Ag 0.5776 -9.8146 -2.5812 0
M  V30 73 Ba 3.0561 -3.1305 -1.1379 0
M  V30 74 Ga 3.5434 -2.1786 -0.1220 0
M  V30 75 Ba 4.0315 -1.2268 0.8937 0
M  V30 76 Ba 4.4060 3.8509 1.2718 0
M  V30 77 Ga 3.8814 2.4756 1.1826 0
M  V30 78 Ba 3.3553 1.1013 1.0872 0
M  V30 79 Ba -1.0199 -5.3262 1.6218 0
M  V30 80 Ga 0.0143 -4.5677 0.8891 0
M  V30 81 Ba 1.0374 -3.8334 0.1172 0
M  V30 82 Ba 5.1065 6.2282 1.4751 0
M  V30 83 Ga 3.9187 7.0938 1.6445 0
M  V30 84 Ba 2.6443 7.7256 2.0515 0
M  V30 85 Ba 3.2591 -7.7175 -2.0986 0
M  V30 86 Ga 3.0877 -6.2850 -1.7823 0
M  V30 87 Ba 2.8700 -4.8568 -1.4744 0
M  V30 88 Ba -1.1517 3.8417 2.1435 0
M  V30 89 Ga -0.1602 4.9332 2.1294 0
M  V30 90 Ba 0.8307 6.0252 2.1091 0
M  V30 91 Ba 4.2441 3.9338 3.7518 0
M  V30 92 Ga 2.9675 4.5633 4.1556 0
M  V30 93 Ba 1.7820 5.4313 4.3283 0
M  V30 94 Ba 5.4721 5.9686 3.8097 0
M  V30 95 Ga 4.3554 6.8134 4.2381 0
M  V30 96 Ba 3.0424 7.4463 4.3786 0
M  V30 97 Ba -0.6453 1.7230 3.6784 0
M  V30 98 Ga 0.6146 1.0320 3.2692 0
M  V30 99 Ba 1.8478 0.2068 3.0940 0
M  V30 END ATOM
M  V30 BEGIN BOND
M  V30 1 1 1 2
M  V30 2 1 1 3
M  V30 3 1 1 4
M  V30 4 1 1 5
M  V30 5 1 6 7
M  V30 6 1 6 8
M  V30 7 1 6 9
M  V30 8 1 6 10
M  V30 9 1 11 12
M  V30 10 1 11 13
M  V30 11 1 11 14
M  V30 12 1 11 15
M  V30 13 1 16 17
M  V30 14 1 16 18
M  V30 15 1 16 19
M  V30 16 1 16 20
M  V30 17 1 21 22
M  V30 18 1 21 23
M  V30 19 1 21 24
M  V30 20 1 21 25
M  V30 21 1 26 27
M  V30 22 1 26 28
M  V30 23 1 26 29
M  V30 24 1 26 30
M  V30 25 1 31 32
M  V30 26 1 31 33
M  V30 27 1 31 34
M  V30 28 1 31 35
M  V30 29 1 36 37
M  V30 30 1 36 38
M  V30 31 1 36 39
M  V30 32 1 36 40
M  V30 33 1 41 42
M  V30 34 1 41 43
M  V30 35 1 41 44
M  V30 36 1 41 45
M  V30 37 1 46 47
M  V30 38 1 47 48
M  V30 39 1 49 50
M  V30 40 1 50 51
M  V30 41 1 52 53
M  V30 42 1 53 54
M  V30 43 1 55 56
M  V30 44 1 56 57
M  V30 45 1 58 59
M  V30 46 1 59 60
M  V30 47 1 61 62
M  V30 48 1 62 63
M  V30 49 1 64 65
M  V30 50 1 65 66
M  V30 51 1 67 68
M  V30 52 1 68 69
M  V30 53 1 70 71
M  V30 54 1 71 72
M  V30 55 1 73 74
M  V30 56 1 74 75
M  V30 57 1 76 77
M  V30 58 1 77 78
M  V30 59 1 79 80
M  V30 60 1 80 81
M  V30 61 1 82 83
M  V30 62 1 83 84
M  V30 63 1 85 86
M  V30 64 1 86 87
M  V30 65 1 88 89
M  V30 66 1 89 90
M  V30 67 1 91 92
M  V30 68 1 92 93
M  V30 69 1 94 95
M  V30 70 1 95 96
M  V30 71 1 97 98
M  V30 72 1 98 99
M  V30 73 1 2 79
M  V30 74 1 3 70
M  V30 75 1 4 46
M  V30 76 1 5 64
M  V30 77 1 7 85
M  V30 78 1 8 66
M  V30 79 1 9 72
M  V30 80 1 10 48
M  V30 81 1 12 49
M  V30 82 1 13 97
M  V30 83 1 14 52
M  V30 84 1 15 88
M  V30 85 1 17 76
M  V30 86 1 18 91
M  V30 87 1 19 82
M  V30 88 1 20 94
M  V30 89 1 22 96
M  V30 90 1 23 93
M  V30 91 1 24 84
M  V30 92 1 25 90
M  V30 93 1 27 55
M  V30 94 1 28 87
M  V30 95 1 29 81
M  V30 96 1 30 73
M  V30 97 1 32 78
M  V30 98 1 33 51
M  V30 99 1 34 99
M  V30 100 1 35 75
M  V30 101 1 37 67
M  V30 102 1 38 54
M  V30 103 1 39 61
M  V30 104 1 40 58
M  V30 105 1 42 60
M  V30 106 1 43 63
M  V30 107 1 44 57
M  V30 108 1 45 69
M  V30 END BOND
M  V30 END CTAB
M  END

$$$$
