
     RDKit          3D

  0  0  0  0  0  0  0  0  0  0999 V3000
M  V30 BEGIN CTAB
M  V30 COUNTS 99 108 0 0 0
M  V30 BEGIN ATOM
M  V30 1 Pd -1.9047 -3.9976 0.5046 0
M  V30 2 Pb -1.5401 -4.0982 -0.4247 0
M  V30 3 Pb -2.8370 -4.0598 0.1537 0
M  V30 4 Pb -0.9694 -3.9752 0.8571 0
M  V30 5 Pb -2.3015 -3.8590 1.4146 0
M  V30 6 Pd 2.0112 -1.4971 4.0914 0
M  V30 7 Pb 1.4423 -0.7891 3.6670 0
M  V30 8 Pb 2.3008 -0.8227 4.7641 0
M  V30 9 Pb 1.7840 -2.1764 3.3928 0
M  V30 10 Pb 2.7021 -2.1236 4.4470 0
M  V30 11 Pd 4.2095 2.4184 2.5200 0
M  V30 12 Pb 4.3053 2.6415 1.5496 0
M  V30 13 Pb 4.1115 2.2299 3.4944 0
M  V30 14 Pb 5.1952 2.2740 2.5869 0
M  V30 15 Pb 3.2102 2.3873 2.4448 0
M  V30 16 Pd 2.5129 -2.3798 -2.5525 0
M  V30 17 Pb 2.7865 -3.0269 -1.8409 0
M  V30 18 Pb 2.2668 -1.7364 -3.2821 0
M  V30 19 Pb 3.3856 -1.9020 -2.4359 0
M  V30 20 Pb 1.6486 -2.8761 -2.6668 0
M  V30 21 Pd 0.7684 4.1037 -1.0332 0
M  V30 22 Pb -0.2171 4.1997 -0.8972 0
M  V30 23 Pb 0.7275 4.7094 -1.8252 0
M  V30 24 Pb 1.7513 3.9711 -1.1462 0
M  V30 25 Pb 0.7673 3.4546 -0.2749 0
M  V30 26 Pd 5.9850 -2.0461 1.4797 0
M  V30 27 Pb 6.0113 -1.6609 0.5567 0
M  V30 28 Pb 5.4162 -2.7948 1.1396 0
M  V30 29 Pb 6.5235 -1.2699 1.8167 0
M  V30 30 Pb 5.9026 -2.4328 2.3993 0
M  V30 31 Pd -7.3949 0.1462 -1.9626 0
M  V30 32 Pb -7.2719 1.1237 -2.1511 0
M  V30 33 Pb -7.6804 0.2898 -1.0146 0
M  V30 34 Pb -7.0322 -0.0217 -2.8743 0
M  V30 35 Pb -7.3650 -0.8319 -1.7806 0
M  V30 36 Pd -4.3947 0.1468 2.2863 0
M  V30 37 Pb -5.3927 0.1183 2.2032 0
M  V30 38 Pb -3.4018 0.2256 2.3556 0
M  V30 39 Pb -4.3387 -0.7501 2.7279 0
M  V30 40 Pb -4.3879 1.0242 1.8082 0
M  V30 41 Pd -1.9337 3.2170 -5.3066 0
M  V30 42 Pb -1.1149 2.6984 -5.5537 0
M  V30 43 Pb -2.5053 2.4413 -5.5585 0
M  V30 44 Pb -2.7684 3.6423 -4.9460 0
M  V30 45 Pb -1.3713 4.0050 -5.0544 0
M  V30 46 Ag -7.0667 1.8181 -2.3613 0
M  V30 47 Fe -5.3143 2.9781 -3.4795 0
M  V30 48 Ag -3.4213 3.8499 -4.6302 0
M  V30 49 Ag -3.5451 -4.0974 -0.0847 0
M  V30 50 Fe -5.4563 -2.9331 -0.8674 0
M  V30 51 Ag -7.2212 -1.5477 -1.6325 0
M  V30 52 Ag 2.1142 -1.2492 -3.8361 0
M  V30 53 Fe 0.8174 0.5050 -4.7814 0
M  V30 54 Ag -0.5192 2.2575 -5.6730 0
M  V30 55 Ag -6.6805 -0.1020 -3.5261 0
M  V30 56 Fe -4.8589 0.7781 -4.7575 0
M  V30 57 Ag -2.9900 1.8915 -5.6939 0
M  V30 58 Ag 0.6912 2.9466 0.2688 0
M  V30 59 Fe -0.8939 1.5912 1.3999 0
M  V30 60 Ag -2.6633 0.3454 2.3730 0
M  V30 61 Ag -0.9516 4.2121 -0.7490 0
M  V30 62 Fe -2.7174 3.0287 0.3082 0
M  V30 63 Ag -4.3048 1.6651 1.4292 0
M  V30 64 Ba 3.0139 -3.5103 -1.3144 0
M  V30 65 Ga 3.9894 -3.4388 -0.2105 0
M  V30 66 Ba 4.9702 -3.3423 0.8868 0
M  V30 67 Ba 4.3803 2.8306 0.8273 0
M  V30 68 Ga 3.4540 3.3355 -0.2020 0
M  V30 69 Ba 2.4859 3.8376 -1.1935 0
M  V30 70 Ba -2.6598 -3.7385 2.0654 0
M  V30 71 Ga -3.4461 -2.5979 2.5816 0
M  V30 72 Ba -4.2180 -1.4233 3.0401 0
M  V30 73 Ba 4.0463 -1.5548 -2.3462 0
M  V30 74 Ga 5.0294 -1.4586 -1.2488 0
M  V30 75 Ba 5.9983 -1.3764 -0.1376 0
M  V30 76 Ba 3.2935 -2.5349 4.6496 0
M  V30 77 Ga 4.5654 -2.6859 3.9192 0
M  V30 78 Ba 5.7717 -2.7384 3.0727 0
M  V30 79 Ba -7.8523 0.3295 -0.2848 0
M  V30 80 Ga -7.0188 0.2482 0.9322 0
M  V30 81 Ba -6.1385 0.1617 2.1154 0
M  V30 82 Ba 2.5692 -0.2900 5.2106 0
M  V30 83 Ga 3.2938 0.9193 4.8017 0
M  V30 84 Ba 3.9938 2.0682 4.2142 0
M  V30 85 Ba 0.6515 5.1283 -2.4401 0
M  V30 86 Ga -0.1312 4.8928 -3.6663 0
M  V30 87 Ba -0.9385 4.5867 -4.8608 0
M  V30 88 Ba 1.1061 -0.1945 3.3496 0
M  V30 89 Ga 1.7182 1.0623 2.8619 0
M  V30 90 Ba 2.4683 2.2593 2.4182 0
M  V30 91 Ba -1.2900 -4.1633 -1.1323 0
M  V30 92 Ga -0.1272 -3.7033 -1.9228 0
M  V30 93 Ba 1.0133 -3.2699 -2.7593 0
M  V30 94 Ba -0.2537 -4.0005 1.0787 0
M  V30 95 Ga 0.6684 -3.3126 2.0022 0
M  V30 96 Ba 1.6939 -2.7163 2.8791 0
M  V30 97 Ba 5.9108 2.0569 2.6272 0
M  V30 98 Ga 6.4662 0.7170 2.3517 0
M  V30 99 Ba 6.9012 -0.6612 2.0485 0
M  V30 END ATOM
M  V30 BEGIN BOND
M  V30 1 1 1 2
M  V30 2 1 1 3
M  V30 3 1 1 4
M  V30 4 1 1 5
M  V30 5 1 6 7
M  V30 6 1 6 8
M  V30 7 1 6 9
M  V30 8 1 6 10
M  V30 9 1 11 12
M  V30 10 1 11 13
M  V30 11 1 11 14
M  V30 12 1 11 15
M  V30 13 1 16 17
M  V30 14 1 16 18
M  V30 15 1 16 19
M  V30 16 1 16 20
M  V30 17 1 21 22
M  V30 18 1 21 23
M  V30 19 1 21 24
M  V30 20 1 21 25
M  V30 21 1 26 27
M  V30 22 1 26 28
M  V30 23 1 26 29
M  V30 24 1 26 30
M  V30 25 1 31 32
M  V30 26 1 31 33
M  V30 27 1 31 34
M  V30 28 1 31 35
M  V30 29 1 36 37
M  V30 30 1 36 38
M  V30 31 1 36 39
M  V30 32 1 36 40
M  V30 33 1 41 42
M  V30 34 1 41 43
M  V30 35 1 41 44
M  V30 36 1 41 45
M  V30 37 1 46 47
M  V30 38 1 47 48
M  V30 39 1 49 50
M  V30 40 1 50 51
M  V30 41 1 52 53
M  V30 42 1 53 54
M  V30 43 1 55 56
M  V30 44 1 56 57
M  V30 45 1 58 59
M  V30 46 1 59 60
M  V30 47 1 61 62
M  V30 48 1 62 63
M  V30 49 1 64 65
M  V30 50 1 65 66
M  V30 51 1 67 68
M  V30 52 1 68 69
M  V30 53 1 70 71
M  V30 54 1 71 72
M  V30 55 1 73 74
M  V30 56 1 74 75
M  V30 57 1 76 77
M  V30 58 1 77 78
M  V30 59 1 79 80
M  V30 60 1 80 81
M  V30 61 1 82 83
M  V30 62 1 83 84
M  V30 63 1 85 86
M  V30 64 1 86 87
M  V30 65 1 88 89
M  V30 66 1 89 90
M  V30 67 1 91 92
M  V30 68 1 92 93
M  V30 69 1 94 95
M  V30 70 1 95 96
M  V30 71 1 97 98
M  V30 72 1 98 99
M  V30 73 1 2 91
M  V30 74 1 3 49
M  V30 75 1 4 94
M  V30 76 1 5 70
M  V30 77 1 7 88
M  V30 78 1 8 82
M  V30 79 1 9 96
M  V30 80 1 10 76
M  V30 81 1 12 67
M  V30 82 1 13 84
M  V30 83 1 14 97
M  V30 84 1 15 90
M  V30 85 1 17 64
M  V30 86 1 18 52
M  V30 87 1 19 73
M  V30 88 1 20 93
M  V30 89 1 22 61
M  V30 90 1 23 85
M  V30 91 1 24 69
M  V30 92 1 25 58
M  V30 93 1 27 75
M  V30 94 1 28 66
M  V30 95 1 29 99
M  V30 96 1 30 78
M  V30 97 1 32 46
M  V30 98 1 33 79
M  V30 99 1 34 55
M  V30 100 1 35 51
M  V30 101 1 37 81
M  V30 102 1 38 60
M  V30 103 1 39 72
M  V30 104 1 40 63
M  V30 105 1 42 54
M  V30 106 1 43 57
M  V30 107 1 44 48
M  V30 108 1 45 87
M  V30 END BOND
M  V30 END CTAB
M  END

$$$$
