
     RDKit          3D

  0  0  0  0  0  0  0  0  0  0999 V3000
M  V30 BEGIN CTAB
M  V30 COUNTS 99 108 0 0 0
M  V30 BEGIN ATOM
M  V30 1 Pd 0.5866 5.0313 3.0367 0
M  V30 2 Pb 0.3368 5.3529 2.1242 0
M  V30 3 Pb 1.5375 5.3075 2.8804 0
M  V30 4 Pb -0.3728 4.8074 3.2183 0
M  V30 5 Pb 0.8447 4.6107 3.9059 0
M  V30 6 Pd 6.1752 -1.9670 -1.5164 0
M  V30 7 Pb 5.2187 -1.9809 -1.8110 0
M  V30 8 Pb 7.1054 -1.8641 -1.1742 0
M  V30 9 Pb 6.0385 -2.6935 -0.8464 0
M  V30 10 Pb 6.3196 -1.1130 -2.0191 0
M  V30 11 Pd -3.0997 -2.3421 -4.4262 0
M  V30 12 Pb -3.8435 -1.6740 -4.3735 0
M  V30 13 Pb -2.3513 -3.0068 -4.4854 0
M  V30 14 Pb -3.7693 -3.0842 -4.5075 0
M  V30 15 Pb -2.4378 -1.5941 -4.3517 0
M  V30 16 Pd -6.5582 -4.3849 -1.0673 0
M  V30 17 Pb -6.4162 -4.6592 -2.0176 0
M  V30 18 Pb -6.6266 -4.0216 -0.1382 0
M  V30 19 Pb -5.8671 -5.0437 -0.7789 0
M  V30 20 Pb -7.1725 -3.6502 -1.3480 0
M  V30 21 Pd 0.6879 -4.1383 -1.0604 0
M  V30 22 Pb 1.3344 -3.4507 -1.3950 0
M  V30 23 Pb 0.4910 -4.3690 -2.0137 0
M  V30 24 Pb 0.0007 -4.8009 -0.7685 0
M  V30 25 Pb 0.8072 -3.8768 -0.1003 0
M  V30 26 Pd -6.5341 2.3744 1.1019 0
M  V30 27 Pb -6.5656 1.5380 1.6489 0
M  V30 28 Pb -6.4766 3.1614 0.4899 0
M  V30 29 Pb -5.9209 2.8128 1.7603 0
M  V30 30 Pb -7.1098 1.8991 0.4380 0
M  V30 31 Pd -3.4225 2.8712 -3.0075 0
M  V30 32 Pb -2.7718 3.5464 -2.6591 0
M  V30 33 Pb -4.1610 3.4595 -2.6756 0
M  V30 34 Pb -2.6773 2.2785 -3.3175 0
M  V30 35 Pb -4.0829 2.1950 -3.3370 0
M  V30 36 Pd 4.0976 -1.1116 5.2373 0
M  V30 37 Pb 3.2588 -1.5538 4.9243 0
M  V30 38 Pb 4.9377 -0.6190 5.4683 0
M  V30 39 Pb 4.5795 -1.8396 4.7494 0
M  V30 40 Pb 3.5866 -0.3560 5.6471 0
M  V30 41 Pd 8.1233 3.6118 1.7430 0
M  V30 42 Pb 8.7450 2.8525 1.5691 0
M  V30 43 Pb 7.4295 4.3148 1.9026 0
M  V30 44 Pb 8.1720 3.4043 2.7184 0
M  V30 45 Pb 7.9671 3.6431 0.7546 0
M  V30 46 Ag 0.1466 5.5252 1.4201 0
M  V30 47 Fe -1.0654 4.8464 -0.5061 0
M  V30 48 Ag -2.3143 4.0661 -2.3694 0
M  V30 49 Ag 0.8152 -3.7011 0.6314 0
M  V30 50 Fe 1.7457 -2.7970 2.6221 0
M  V30 51 Ag 2.6674 -1.8969 4.6186 0
M  V30 52 Ag -5.2870 -5.4712 -0.5819 0
M  V30 53 Fe -2.9162 -5.5003 -0.5198 0
M  V30 54 Ag -0.5573 -5.2601 -0.5758 0
M  V30 55 Ag -6.6576 -3.6510 0.5130 0
M  V30 56 Fe -6.6400 -1.4498 1.4040 0
M  V30 57 Ag -6.6000 0.8579 1.9630 0
M  V30 58 Ag 6.4622 -0.4121 -2.2504 0
M  V30 59 Fe 7.1370 1.6662 -1.3139 0
M  V30 60 Ag 7.8159 3.5049 0.0315 0
M  V30 61 Ag 7.7610 -1.6687 -0.8779 0
M  V30 62 Fe 8.6819 0.1795 0.2821 0
M  V30 63 Ag 9.1128 2.2300 1.3864 0
M  V30 64 Ag -7.5664 -3.0308 -1.4909 0
M  V30 65 Fe -7.6725 -0.7430 -0.8713 0
M  V30 66 Ag -7.5010 1.4711 -0.0357 0
M  V30 67 Ag 5.9846 -3.1199 -0.2338 0
M  V30 68 Fe 5.4483 -2.9141 2.0700 0
M  V30 69 Ag 4.8477 -2.3816 4.3048 0
M  V30 70 Ag -1.0953 4.6713 3.3756 0
M  V30 71 Fe -3.2642 3.8916 2.7958 0
M  V30 72 Ag -5.4462 3.1216 2.2534 0
M  V30 73 Ag 1.0417 4.2274 4.5192 0
M  V30 74 Fe 2.1136 2.2618 5.3108 0
M  V30 75 Ag 3.2225 0.2473 5.9039 0
M  V30 76 Ag 5.5274 -0.1726 5.5986 0
M  V30 77 Fe 6.9239 1.4950 4.6447 0
M  V30 78 Ag 8.1423 3.1164 3.4091 0
M  V30 79 Ag 2.2430 5.5481 2.7781 0
M  V30 80 Fe 4.5598 5.1789 2.3967 0
M  V30 81 Ag 6.8765 4.8099 2.0147 0
M  V30 82 Ba 4.5076 -1.9012 -2.0391 0
M  V30 83 Ga 3.1622 -2.4727 -1.8309 0
M  V30 84 Ba 1.7624 -2.9310 -1.7287 0
M  V30 85 Ba -1.9478 -1.0265 -4.3006 0
M  V30 86 Ga -2.0350 0.3987 -3.9223 0
M  V30 87 Ba -2.1236 1.8237 -3.5438 0
M  V30 88 Ba -4.3970 -1.1675 -4.3381 0
M  V30 89 Ga -4.4863 0.2564 -3.9586 0
M  V30 90 Ba -4.5736 1.6805 -3.5787 0
M  V30 91 Ba -4.2763 -3.6372 -4.5711 0
M  V30 92 Ga -5.2750 -4.2456 -3.6691 0
M  V30 93 Ba -6.2592 -4.8233 -2.7319 0
M  V30 94 Ba -6.4194 3.7103 -0.0160 0
M  V30 95 Ga -5.5698 3.8409 -1.2142 0
M  V30 96 Ba -4.6930 3.9108 -2.3980 0
M  V30 97 Ba -1.7899 -3.5055 -4.5383 0
M  V30 98 Ga -0.7365 -4.0156 -3.6367 0
M  V30 99 Ba 0.3131 -4.5191 -2.7272 0
M  V30 END ATOM
M  V30 BEGIN BOND
M  V30 1 1 1 2
M  V30 2 1 1 3
M  V30 3 1 1 4
M  V30 4 1 1 5
M  V30 5 1 6 7
M  V30 6 1 6 8
M  V30 7 1 6 9
M  V30 8 1 6 10
M  V30 9 1 11 12
M  V30 10 1 11 13
M  V30 11 1 11 14
M  V30 12 1 11 15
M  V30 13 1 16 17
M  V30 14 1 16 18
M  V30 15 1 16 19
M  V30 16 1 16 20
M  V30 17 1 21 22
M  V30 18 1 21 23
M  V30 19 1 21 24
M  V30 20 1 21 25
M  V30 21 1 26 27
M  V30 22 1 26 28
M  V30 23 1 26 29
M  V30 24 1 26 30
M  V30 25 1 31 32
M  V30 26 1 31 33
M  V30 27 1 31 34
M  V30 28 1 31 35
M  V30 29 1 36 37
M  V30 30 1 36 38
M  V30 31 1 36 39
M  V30 32 1 36 40
M  V30 33 1 41 42
M  V30 34 1 41 43
M  V30 35 1 41 44
M  V30 36 1 41 45
M  V30 37 1 46 47
M  V30 38 1 47 48
M  V30 39 1 49 50
M  V30 40 1 50 51
M  V30 41 1 52 53
M  V30 42 1 53 54
M  V30 43 1 55 56
M  V30 44 1 56 57
M  V30 45 1 58 59
M  V30 46 1 59 60
M  V30 47 1 61 62
M  V30 48 1 62 63
M  V30 49 1 64 65
M  V30 50 1 65 66
M  V30 51 1 67 68
M  V30 52 1 68 69
M  V30 53 1 70 71
M  V30 54 1 71 72
M  V30 55 1 73 74
M  V30 56 1 74 75
M  V30 57 1 76 77
M  V30 58 1 77 78
M  V30 59 1 79 80
M  V30 60 1 80 81
M  V30 61 1 82 83
M  V30 62 1 83 84
M  V30 63 1 85 86
M  V30 64 1 86 87
M  V30 65 1 88 89
M  V30 66 1 89 90
M  V30 67 1 91 92
M  V30 68 1 92 93
M  V30 69 1 94 95
M  V30 70 1 95 96
M  V30 71 1 97 98
M  V30 72 1 98 99
M  V30 73 1 2 46
M  V30 74 1 3 79
M  V30 75 1 4 70
M  V30 76 1 5 73
M  V30 77 1 7 82
M  V30 78 1 8 61
M  V30 79 1 9 67
M  V30 80 1 10 58
M  V30 81 1 12 88
M  V30 82 1 13 97
M  V30 83 1 14 91
M  V30 84 1 15 85
M  V30 85 1 17 93
M  V30 86 1 18 55
M  V30 87 1 19 52
M  V30 88 1 20 64
M  V30 89 1 22 84
M  V30 90 1 23 99
M  V30 91 1 24 54
M  V30 92 1 25 49
M  V30 93 1 27 57
M  V30 94 1 28 94
M  V30 95 1 29 72
M  V30 96 1 30 66
M  V30 97 1 32 48
M  V30 98 1 33 96
M  V30 99 1 34 87
M  V30 100 1 35 90
M  V30 101 1 37 51
M  V30 102 1 38 76
M  V30 103 1 39 69
M  V30 104 1 40 75
M  V30 105 1 42 63
M  V30 106 1 43 81
M  V30 107 1 44 78
M  V30 108 1 45 60
M  V30 END BOND
M  V30 END CTAB
M  END

$$$$
