
     RDKit          3D

  0  0  0  0  0  0  0  0  0  0999 V3000
M  V30 BEGIN CTAB
M  V30 COUNTS 99 108 0 0 0
M  V30 BEGIN ATOM
M  V30 1 Pd -3.0713 1.3897 3.4494 0
M  V30 2 Pb -3.7856 0.6927 3.4620 0
M  V30 3 Pb -2.3606 2.0981 3.4411 0
M  V30 4 Pb -3.0095 1.3412 4.4483 0
M  V30 5 Pb -3.1584 1.3710 2.4516 0
M  V30 6 Pd 4.4327 5.8477 -4.5159 0
M  V30 7 Pb 4.7381 4.9839 -4.9131 0
M  V30 8 Pb 4.0284 6.6378 -4.0334 0
M  V30 9 Pb 3.6466 5.8024 -5.1298 0
M  V30 10 Pb 5.1707 5.8553 -3.8455 0
M  V30 11 Pd -1.2332 -5.4729 -1.9820 0
M  V30 12 Pb -2.2212 -5.4159 -1.7660 0
M  V30 13 Pb -1.1417 -4.4765 -1.9008 0
M  V30 14 Pb -0.2481 -5.5414 -2.1191 0
M  V30 15 Pb -1.3096 -6.4648 -1.9276 0
M  V30 16 Pd 4.1705 -2.3584 1.4060 0
M  V30 17 Pb 4.1941 -3.0526 0.6916 0
M  V30 18 Pb 3.9253 -3.0396 2.0938 0
M  V30 19 Pb 4.3306 -1.6623 0.7093 0
M  V30 20 Pb 4.0423 -1.6679 2.1181 0
M  V30 21 Pd 1.7792 -0.7688 -3.5166 0
M  V30 22 Pb 2.4398 -0.3630 -4.1489 0
M  V30 23 Pb 1.0984 -1.1296 -2.8745 0
M  V30 24 Pb 2.4809 -0.6389 -2.8105 0
M  V30 25 Pb 1.0738 -0.8088 -4.2256 0
M  V30 26 Pd -0.6720 -2.0653 6.6499 0
M  V30 27 Pb -0.0534 -2.7982 6.3704 0
M  V30 28 Pb -1.3941 -2.7398 6.8129 0
M  V30 29 Pb -1.2790 -1.2998 6.8686 0
M  V30 30 Pb 0.0586 -1.4275 6.4044 0
M  V30 31 Pd -4.9080 -5.9982 2.3838 0
M  V30 32 Pb -5.2365 -5.0700 2.5471 0
M  V30 33 Pb -4.7895 -6.0737 3.3732 0
M  V30 34 Pb -4.5775 -6.9221 2.2084 0
M  V30 35 Pb -4.9120 -5.8422 1.3841 0
M  V30 36 Pd -2.1085 2.5837 -4.3022 0
M  V30 37 Pb -1.8979 1.7317 -4.7855 0
M  V30 38 Pb -2.2677 3.4277 -3.7929 0
M  V30 39 Pb -1.5964 3.1072 -4.9810 0
M  V30 40 Pb -2.5737 2.0861 -3.5720 0
M  V30 41 Pd 1.6358 6.8856 0.3434 0
M  V30 42 Pb 1.9778 7.3453 -0.4918 0
M  V30 43 Pb 1.3035 6.3833 1.1440 0
M  V30 44 Pb 0.7129 6.8812 -0.0366 0
M  V30 45 Pb 2.5795 6.8313 0.6607 0
M  V30 46 Ag 4.8480 4.2923 -5.1783 0
M  V30 47 Fe 3.9994 2.0841 -4.9736 0
M  V30 48 Ag 2.9580 -0.0097 -4.5611 0
M  V30 49 Ag -4.3196 0.1695 3.4359 0
M  V30 50 Fe -4.9218 -2.0968 3.0739 0
M  V30 51 Ag -5.4676 -4.3758 2.7025 0
M  V30 52 Ag 3.6702 -3.4846 2.6390 0
M  V30 53 Fe 2.0978 -3.5428 4.4155 0
M  V30 54 Ag 0.4446 -3.2869 6.0988 0
M  V30 55 Ag -1.4595 -7.1567 -1.7039 0
M  V30 56 Fe -2.8161 -7.8519 0.0976 0
M  V30 57 Ag -4.2748 -7.5401 1.9268 0
M  V30 58 Ag 5.5757 5.8999 -3.2235 0
M  V30 59 Fe 4.8837 6.3145 -1.0047 0
M  V30 60 Ag 3.3175 6.7544 0.7063 0
M  V30 61 Ag 3.8594 -1.2094 2.6831 0
M  V30 62 Fe 2.3091 -0.9709 4.4669 0
M  V30 63 Ag 0.6321 -1.0165 6.1487 0
M  V30 64 Ag 0.4977 -5.5579 -2.1448 0
M  V30 65 Fe 2.4253 -4.6500 -1.1073 0
M  V30 66 Ag 4.1122 -3.5511 0.1428 0
M  V30 67 Ag 3.0348 5.7042 -5.5492 0
M  V30 68 Fe 0.9053 4.6594 -5.6108 0
M  V30 69 Ag -1.1720 3.5265 -5.4328 0
M  V30 70 Ag -3.2954 1.2608 1.7202 0
M  V30 71 Fe -3.0608 1.5420 -0.6272 0
M  V30 72 Ag -2.9034 1.7518 -2.9887 0
M  V30 73 Ag -2.3378 4.0499 -3.3829 0
M  V30 74 Fe -1.2429 5.5078 -1.8646 0
M  V30 75 Ag 0.0439 6.8219 -0.3658 0
M  V30 76 Ag -1.8297 2.6310 3.4862 0
M  V30 77 Fe -0.4038 4.3039 2.5787 0
M  V30 78 Ag 1.0453 5.9869 1.7283 0
M  V30 79 Ag -1.9115 -3.2826 6.8625 0
M  V30 80 Fe -3.3333 -4.7148 5.6085 0
M  V30 81 Ag -4.6462 -6.0045 4.1059 0
M  V30 82 Ba 0.5177 -0.8037 -4.7303 0
M  V30 83 Ga -0.6048 0.1294 -4.9574 0
M  V30 84 Ba -1.7076 1.0956 -5.1387 0
M  V30 85 Ba 4.4189 -1.1498 0.1718 0
M  V30 86 Ga 3.7051 -0.8360 -1.0827 0
M  V30 87 Ba 3.0496 -0.4552 -2.3500 0
M  V30 88 Ba 3.7094 7.2146 -3.6537 0
M  V30 89 Ga 2.9763 7.4181 -2.3724 0
M  V30 90 Ba 2.2367 7.7067 -1.1115 0
M  V30 91 Ba -2.9683 -5.3924 -1.6135 0
M  V30 92 Ga -3.8978 -5.5568 -0.4593 0
M  V30 93 Ba -4.9000 -5.7049 0.6347 0
M  V30 94 Ba -2.9789 1.2701 5.1964 0
M  V30 95 Ga -2.3518 0.2940 6.1113 0
M  V30 96 Ba -1.7114 -0.6993 6.9980 0
M  V30 97 Ba -1.0732 -3.7403 -1.7530 0
M  V30 98 Ga -0.2361 -2.5787 -2.1257 0
M  V30 99 Ba 0.5383 -1.3535 -2.4235 0
M  V30 END ATOM
M  V30 BEGIN BOND
M  V30 1 1 1 2
M  V30 2 1 1 3
M  V30 3 1 1 4
M  V30 4 1 1 5
M  V30 5 1 6 7
M  V30 6 1 6 8
M  V30 7 1 6 9
M  V30 8 1 6 10
M  V30 9 1 11 12
M  V30 10 1 11 13
M  V30 11 1 11 14
M  V30 12 1 11 15
M  V30 13 1 16 17
M  V30 14 1 16 18
M  V30 15 1 16 19
M  V30 16 1 16 20
M  V30 17 1 21 22
M  V30 18 1 21 23
M  V30 19 1 21 24
M  V30 20 1 21 25
M  V30 21 1 26 27
M  V30 22 1 26 28
M  V30 23 1 26 29
M  V30 24 1 26 30
M  V30 25 1 31 32
M  V30 26 1 31 33
M  V30 27 1 31 34
M  V30 28 1 31 35
M  V30 29 1 36 37
M  V30 30 1 36 38
M  V30 31 1 36 39
M  V30 32 1 36 40
M  V30 33 1 41 42
M  V30 34 1 41 43
M  V30 35 1 41 44
M  V30 36 1 41 45
M  V30 37 1 46 47
M  V30 38 1 47 48
M  V30 39 1 49 50
M  V30 40 1 50 51
M  V30 41 1 52 53
M  V30 42 1 53 54
M  V30 43 1 55 56
M  V30 44 1 56 57
M  V30 45 1 58 59
M  V30 46 1 59 60
M  V30 47 1 61 62
M  V30 48 1 62 63
M  V30 49 1 64 65
M  V30 50 1 65 66
M  V30 51 1 67 68
M  V30 52 1 68 69
M  V30 53 1 70 71
M  V30 54 1 71 72
M  V30 55 1 73 74
M  V30 56 1 74 75
M  V30 57 1 76 77
M  V30 58 1 77 78
M  V30 59 1 79 80
M  V30 60 1 80 81
M  V30 61 1 82 83
M  V30 62 1 83 84
M  V30 63 1 85 86
M  V30 64 1 86 87
M  V30 65 1 88 89
M  V30 66 1 89 90
M  V30 67 1 91 92
M  V30 68 1 92 93
M  V30 69 1 94 95
M  V30 70 1 95 96
M  V30 71 1 97 98
M  V30 72 1 98 99
M  V30 73 1 2 49
M  V30 74 1 3 76
M  V30 75 1 4 94
M  V30 76 1 5 70
M  V30 77 1 7 46
M  V30 78 1 8 88
M  V30 79 1 9 67
M  V30 80 1 10 58
M  V30 81 1 12 91
M  V30 82 1 13 97
M  V30 83 1 14 64
M  V30 84 1 15 55
M  V30 85 1 17 66
M  V30 86 1 18 52
M  V30 87 1 19 85
M  V30 88 1 20 61
M  V30 89 1 22 48
M  V30 90 1 23 99
M  V30 91 1 24 87
M  V30 92 1 25 82
M  V30 93 1 27 54
M  V30 94 1 28 79
M  V30 95 1 29 96
M  V30 96 1 30 63
M  V30 97 1 32 51
M  V30 98 1 33 81
M  V30 99 1 34 57
M  V30 100 1 35 93
M  V30 101 1 37 84
M  V30 102 1 38 73
M  V30 103 1 39 69
M  V30 104 1 40 72
M  V30 105 1 42 90
M  V30 106 1 43 78
M  V30 107 1 44 75
M  V30 108 1 45 60
M  V30 END BOND
M  V30 END CTAB
M  END

$$$$
