
     RDKit          3D

  0  0  0  0  0  0  0  0  0  0999 V3000
M  V30 BEGIN CTAB
M  V30 COUNTS 99 108 0 0 0
M  V30 BEGIN ATOM
M  V30 1 Pd -0.9290 -1.9392 -2.2061 0
M  V30 2 Pb -1.8307 -2.2697 -1.9309 0
M  V30 3 Pb -0.0365 -1.5883 -2.4902 0
M  V30 4 Pb -0.4995 -2.7181 -1.7458 0
M  V30 5 Pb -1.3864 -1.1906 -2.6855 0
M  V30 6 Pd 1.7439 -3.5456 2.5909 0
M  V30 7 Pb 2.6218 -3.9681 2.3646 0
M  V30 8 Pb 0.8598 -3.1427 2.8336 0
M  V30 9 Pb 2.1273 -3.2266 3.4581 0
M  V30 10 Pb 1.3760 -3.8822 1.7223 0
M  V30 11 Pd -2.3810 4.6774 6.6816 0
M  V30 12 Pb -1.6868 5.1345 6.1265 0
M  V30 13 Pb -1.7140 4.7023 7.4350 0
M  V30 14 Pb -2.9124 4.0480 7.2477 0
M  V30 15 Pb -3.0144 4.5980 5.9128 0
M  V30 16 Pd -0.3457 3.3613 -4.3761 0
M  V30 17 Pb -0.9729 2.5944 -4.2431 0
M  V30 18 Pb -0.0750 3.3221 -3.4140 0
M  V30 19 Pb 0.2433 4.1579 -4.5083 0
M  V30 20 Pb -0.9071 3.6525 -5.1663 0
M  V30 21 Pd 1.8913 1.5815 8.3542 0
M  V30 22 Pb 1.1858 1.0780 8.8519 0
M  V30 23 Pb 1.4349 2.4212 8.6694 0
M  V30 24 Pb 2.2996 0.7455 7.9895 0
M  V30 25 Pb 2.4115 2.1649 7.7312 0
M  V30 26 Pd 5.8469 -7.5153 -2.5206 0
M  V30 27 Pb 6.6078 -6.9341 -2.8148 0
M  V30 28 Pb 4.8837 -7.7684 -2.4127 0
M  V30 29 Pb 5.8599 -7.1144 -1.6051 0
M  V30 30 Pb 5.7986 -7.8640 -3.4515 0
M  V30 31 Pd 3.0621 -3.3441 -5.7476 0
M  V30 32 Pb 3.2800 -4.1089 -6.3463 0
M  V30 33 Pb 4.0209 -3.0634 -5.8196 0
M  V30 34 Pb 2.2945 -3.8848 -5.3990 0
M  V30 35 Pb 2.8663 -2.5948 -5.1147 0
M  V30 36 Pd -4.1839 6.4294 -3.6025 0
M  V30 37 Pb -4.0252 6.5165 -2.6188 0
M  V30 38 Pb -4.0040 6.0959 -4.5410 0
M  V30 39 Pb -4.7654 5.6351 -3.4239 0
M  V30 40 Pb -3.5679 7.1988 -3.7690 0
M  V30 41 Pd -4.7409 0.2934 0.7639 0
M  V30 42 Pb -4.8008 1.1306 1.3085 0
M  V30 43 Pb -4.6924 -0.5507 0.2298 0
M  V30 44 Pb -5.2129 0.7662 0.0194 0
M  V30 45 Pb -4.2220 -0.1602 1.4884 0
M  V30 46 Ag -0.1274 3.4991 -2.6878 0
M  V30 47 Fe -1.7803 4.9492 -1.7953 0
M  V30 48 Ag -3.6701 6.3731 -1.9747 0
M  V30 49 Ag -3.0722 3.4798 7.7069 0
M  V30 50 Fe -1.5780 1.9086 8.6642 0
M  V30 51 Ag 0.5115 0.8826 9.1096 0
M  V30 52 Ag 3.2725 -4.3002 2.1944 0
M  V30 53 Fe 4.5843 -5.5453 0.6554 0
M  V30 54 Ag 5.8402 -6.7901 -0.9297 0
M  V30 55 Ag 2.4250 -2.9964 4.1074 0
M  V30 56 Fe 2.5178 -1.4488 5.9064 0
M  V30 57 Ag 2.5808 0.1198 7.6883 0
M  V30 58 Ag 0.1987 -2.8486 3.0360 0
M  V30 59 Fe -1.8059 -1.6783 2.5293 0
M  V30 60 Ag -3.8059 -0.5067 2.0074 0
M  V30 61 Ag 6.9684 -6.3667 -3.1564 0
M  V30 62 Fe 6.1738 -4.5672 -4.5006 0
M  V30 63 Ag 4.7677 -3.0751 -5.7141 0
M  V30 64 Ag 4.1341 -7.7358 -2.4894 0
M  V30 65 Fe 2.7249 -6.2251 -3.6762 0
M  V30 66 Ag 1.9304 -4.4304 -5.0269 0
M  V30 67 Ag 0.5009 4.8515 -4.5775 0
M  V30 68 Fe -0.8152 6.7884 -4.3488 0
M  V30 69 Ag -2.9724 7.6201 -3.9114 0
M  V30 70 Ag -3.4733 4.5094 5.3271 0
M  V30 71 Fe -4.1767 3.1458 3.5144 0
M  V30 72 Ag -4.8605 1.7623 1.7092 0
M  V30 73 Ag -1.0202 5.2987 5.8301 0
M  V30 74 Fe 1.0640 4.2506 6.2484 0
M  V30 75 Ag 2.5636 2.7019 7.2335 0
M  V30 76 Ag 5.6804 -7.9771 -4.1750 0
M  V30 77 Fe 4.6314 -6.6260 -5.7999 0
M  V30 78 Ag 3.5072 -4.7401 -6.6639 0
M  V30 79 Ag -5.1744 5.0261 -3.2655 0
M  V30 80 Fe -5.4110 3.0749 -1.9314 0
M  V30 81 Ag -5.5335 1.1573 -0.5348 0
M  V30 82 Ba -0.2062 -3.3303 -1.4233 0
M  V30 83 Ga 0.4607 -3.7059 -0.1601 0
M  V30 84 Ba 1.1323 -4.1681 1.0714 0
M  V30 85 Ba -1.7758 -0.6625 -3.0484 0
M  V30 86 Ga -1.5784 0.6942 -3.5912 0
M  V30 87 Ba -1.4808 2.0486 -4.1657 0
M  V30 88 Ba -2.5212 -2.4855 -1.7367 0
M  V30 89 Ga -3.5916 -1.8531 -0.9442 0
M  V30 90 Ba -4.6445 -1.1974 -0.1472 0
M  V30 91 Ba 0.6236 -1.3058 -2.7077 0
M  V30 92 Ga 1.6742 -1.6821 -3.6726 0
M  V30 93 Ba 2.7390 -2.0361 -4.6305 0
M  V30 94 Ba -1.4169 3.9451 -5.6578 0
M  V30 95 Ga -2.5888 4.8595 -5.4568 0
M  V30 96 Ba -3.7456 5.7755 -5.1873 0
M  V30 97 Ba -1.2075 4.7104 7.9969 0
M  V30 98 Ga -0.0652 3.8690 8.4314 0
M  V30 99 Ba 1.0829 3.0515 8.8953 0
M  V30 END ATOM
M  V30 BEGIN BOND
M  V30 1 1 1 2
M  V30 2 1 1 3
M  V30 3 1 1 4
M  V30 4 1 1 5
M  V30 5 1 6 7
M  V30 6 1 6 8
M  V30 7 1 6 9
M  V30 8 1 6 10
M  V30 9 1 11 12
M  V30 10 1 11 13
M  V30 11 1 11 14
M  V30 12 1 11 15
M  V30 13 1 16 17
M  V30 14 1 16 18
M  V30 15 1 16 19
M  V30 16 1 16 20
M  V30 17 1 21 22
M  V30 18 1 21 23
M  V30 19 1 21 24
M  V30 20 1 21 25
M  V30 21 1 26 27
M  V30 22 1 26 28
M  V30 23 1 26 29
M  V30 24 1 26 30
M  V30 25 1 31 32
M  V30 26 1 31 33
M  V30 27 1 31 34
M  V30 28 1 31 35
M  V30 29 1 36 37
M  V30 30 1 36 38
M  V30 31 1 36 39
M  V30 32 1 36 40
M  V30 33 1 41 42
M  V30 34 1 41 43
M  V30 35 1 41 44
M  V30 36 1 41 45
M  V30 37 1 46 47
M  V30 38 1 47 48
M  V30 39 1 49 50
M  V30 40 1 50 51
M  V30 41 1 52 53
M  V30 42 1 53 54
M  V30 43 1 55 56
M  V30 44 1 56 57
M  V30 45 1 58 59
M  V30 46 1 59 60
M  V30 47 1 61 62
M  V30 48 1 62 63
M  V30 49 1 64 65
M  V30 50 1 65 66
M  V30 51 1 67 68
M  V30 52 1 68 69
M  V30 53 1 70 71
M  V30 54 1 71 72
M  V30 55 1 73 74
M  V30 56 1 74 75
M  V30 57 1 76 77
M  V30 58 1 77 78
M  V30 59 1 79 80
M  V30 60 1 80 81
M  V30 61 1 82 83
M  V30 62 1 83 84
M  V30 63 1 85 86
M  V30 64 1 86 87
M  V30 65 1 88 89
M  V30 66 1 89 90
M  V30 67 1 91 92
M  V30 68 1 92 93
M  V30 69 1 94 95
M  V30 70 1 95 96
M  V30 71 1 97 98
M  V30 72 1 98 99
M  V30 73 1 2 88
M  V30 74 1 3 91
M  V30 75 1 4 82
M  V30 76 1 5 85
M  V30 77 1 7 52
M  V30 78 1 8 58
M  V30 79 1 9 55
M  V30 80 1 10 84
M  V30 81 1 12 73
M  V30 82 1 13 97
M  V30 83 1 14 49
M  V30 84 1 15 70
M  V30 85 1 17 87
M  V30 86 1 18 46
M  V30 87 1 19 67
M  V30 88 1 20 94
M  V30 89 1 22 51
M  V30 90 1 23 99
M  V30 91 1 24 57
M  V30 92 1 25 75
M  V30 93 1 27 61
M  V30 94 1 28 64
M  V30 95 1 29 54
M  V30 96 1 30 76
M  V30 97 1 32 78
M  V30 98 1 33 63
M  V30 99 1 34 66
M  V30 100 1 35 93
M  V30 101 1 37 48
M  V30 102 1 38 96
M  V30 103 1 39 79
M  V30 104 1 40 69
M  V30 105 1 42 72
M  V30 106 1 43 90
M  V30 107 1 44 81
M  V30 108 1 45 60
M  V30 END BOND
M  V30 END CTAB
M  END

$$$$
