
     RDKit          3D

  0  0  0  0  0  0  0  0  0  0999 V3000
M  V30 BEGIN CTAB
M  V30 COUNTS 99 108 0 0 0
M  V30 BEGIN ATOM
M  V30 1 Pd -3.1725 -3.3818 0.9430 0
M  V30 2 Pb -3.8537 -3.5574 0.2293 0
M  V30 3 Pb -3.3040 -2.3946 0.8392 0
M  V30 4 Pb -2.9579 -4.3523 1.0260 0
M  V30 5 Pb -2.4628 -3.2267 1.6256 0
M  V30 6 Pd -2.8314 6.5053 3.5825 0
M  V30 7 Pb -2.0223 6.6962 3.0253 0
M  V30 8 Pb -3.3640 6.2532 2.7758 0
M  V30 9 Pb -2.2944 6.5887 4.4159 0
M  V30 10 Pb -3.5996 6.2196 4.1511 0
M  V30 11 Pd 1.1535 1.9019 -6.3536 0
M  V30 12 Pb 0.9756 1.0388 -6.8203 0
M  V30 13 Pb 1.3661 2.7143 -5.8144 0
M  V30 14 Pb 2.1360 1.8275 -6.5072 0
M  V30 15 Pb 0.1845 1.9009 -6.0959 0
M  V30 16 Pd 6.1070 -1.0130 -2.1196 0
M  V30 17 Pb 6.1605 -0.4349 -2.9318 0
M  V30 18 Pb 5.9460 -1.8024 -2.7091 0
M  V30 19 Pb 6.2749 -0.2210 -1.5258 0
M  V30 20 Pb 5.9894 -1.6426 -1.3473 0
M  V30 21 Pd 3.8637 3.7911 0.4843 0
M  V30 22 Pb 3.1391 4.4428 0.7234 0
M  V30 23 Pb 3.7084 4.0616 -0.4658 0
M  V30 24 Pb 4.6402 3.1947 0.2532 0
M  V30 25 Pb 3.9659 3.5129 1.4399 0
M  V30 26 Pd 2.3185 -7.1220 -1.6054 0
M  V30 27 Pb 2.9265 -6.8076 -2.3300 0
M  V30 28 Pb 1.6301 -7.4254 -2.2627 0
M  V30 29 Pb 1.6582 -7.3519 -0.8942 0
M  V30 30 Pb 2.9461 -6.6791 -0.9596 0
M  V30 31 Pd -3.1999 -3.5332 -4.5706 0
M  V30 32 Pb -3.8550 -3.6648 -3.8224 0
M  V30 33 Pb -2.9290 -4.4955 -4.5364 0
M  V30 34 Pb -3.3724 -2.5460 -4.6035 0
M  V30 35 Pb -2.5458 -3.3848 -5.3098 0
M  V30 36 Pd 0.0957 0.9310 6.2996 0
M  V30 37 Pb 1.0357 1.1910 6.0830 0
M  V30 38 Pb -0.8723 0.6888 6.4078 0
M  V30 39 Pb -0.0322 1.8374 6.6957 0
M  V30 40 Pb 0.2178 0.0514 5.8515 0
M  V30 41 Pd -4.3927 1.9268 3.3663 0
M  V30 42 Pb -4.5923 2.6118 2.6607 0
M  V30 43 Pb -4.0884 1.3124 2.6339 0
M  V30 44 Pb -4.1469 1.2951 4.1080 0
M  V30 45 Pb -4.7282 2.5755 4.0481 0
M  V30 46 Ag -1.3958 6.7967 2.6235 0
M  V30 47 Fe 0.6085 5.8616 1.7504 0
M  V30 48 Ag 2.6261 4.9794 0.8535 0
M  V30 49 Ag 4.0222 3.2792 2.1508 0
M  V30 50 Fe 2.9362 2.3513 4.0480 0
M  V30 51 Ag 1.7119 1.4226 5.8586 0
M  V30 52 Ag 5.8072 -2.4219 -3.1045 0
M  V30 53 Fe 4.6496 -4.4917 -3.1034 0
M  V30 54 Ag 3.3841 -6.4766 -2.8182 0
M  V30 55 Ag -0.5291 1.7902 -5.8820 0
M  V30 56 Fe -2.0729 0.0919 -5.2554 0
M  V30 57 Ag -3.3972 -1.7964 -4.6719 0
M  V30 58 Ag 0.7898 0.3656 -7.0851 0
M  V30 59 Fe -0.5850 -1.5037 -6.5959 0
M  V30 60 Ag -2.0555 -3.2062 -5.8455 0
M  V30 61 Ag 5.8525 -2.1903 -0.8476 0
M  V30 62 Fe 4.6780 -4.2410 -0.5637 0
M  V30 63 Ag 3.4102 -6.2554 -0.5428 0
M  V30 64 Ag 2.8804 1.7645 -6.4964 0
M  V30 65 Fe 4.6289 0.9116 -5.1397 0
M  V30 66 Ag 6.1278 -0.0478 -3.5714 0
M  V30 67 Ag -1.9184 6.4836 5.0495 0
M  V30 68 Fe -0.9380 4.6421 6.1711 0
M  V30 69 Ag -0.1062 2.5498 6.9076 0
M  V30 70 Ag -2.6832 -5.0441 1.0942 0
M  V30 71 Fe -0.8528 -6.3960 0.4266 0
M  V30 72 Ag 1.0837 -7.4643 -0.4295 0
M  V30 73 Ag -1.9134 -3.1474 2.1257 0
M  V30 74 Fe -0.7975 -1.9057 3.8082 0
M  V30 75 Ag 0.2511 -0.5929 5.4798 0
M  V30 76 Ag 1.0452 -7.5611 -2.7109 0
M  V30 77 Fe -0.8450 -6.4982 -3.6786 0
M  V30 78 Ag -2.6409 -5.1880 -4.5137 0
M  V30 79 Ag 1.6212 3.2723 -5.3856 0
M  V30 80 Fe 2.5654 3.8349 -3.2809 0
M  V30 81 Ag 3.5056 4.2950 -1.1495 0
M  V30 82 Ba -4.3597 -3.6884 -0.3117 0
M  V30 83 Ga -4.3427 -3.7235 -1.7898 0
M  V30 84 Ba -4.3543 -3.7653 -3.2677 0
M  V30 85 Ba 6.4415 0.3755 -1.0960 0
M  V30 86 Ga 5.7859 1.5640 -0.5036 0
M  V30 87 Ba 5.2697 2.7899 0.1473 0
M  V30 88 Ba -4.1388 5.9235 4.5755 0
M  V30 89 Ga -4.6120 4.5300 4.6012 0
M  V30 90 Ba -4.9803 3.1076 4.5110 0
M  V30 91 Ba -3.7742 5.9565 2.2232 0
M  V30 92 Ga -4.2749 4.5699 2.1261 0
M  V30 93 Ba -4.7107 3.1584 2.1558 0
M  V30 94 Ba -1.5911 0.4606 6.4244 0
M  V30 95 Ga -2.7792 0.6742 5.5651 0
M  V30 96 Ba -3.9747 0.8783 4.7139 0
M  V30 97 Ba -3.3503 -1.6546 0.7188 0
M  V30 98 Ga -3.6376 -0.3976 1.4411 0
M  V30 99 Ba -3.8931 0.9436 2.0065 0
M  V30 END ATOM
M  V30 BEGIN BOND
M  V30 1 1 1 2
M  V30 2 1 1 3
M  V30 3 1 1 4
M  V30 4 1 1 5
M  V30 5 1 6 7
M  V30 6 1 6 8
M  V30 7 1 6 9
M  V30 8 1 6 10
M  V30 9 1 11 12
M  V30 10 1 11 13
M  V30 11 1 11 14
M  V30 12 1 11 15
M  V30 13 1 16 17
M  V30 14 1 16 18
M  V30 15 1 16 19
M  V30 16 1 16 20
M  V30 17 1 21 22
M  V30 18 1 21 23
M  V30 19 1 21 24
M  V30 20 1 21 25
M  V30 21 1 26 27
M  V30 22 1 26 28
M  V30 23 1 26 29
M  V30 24 1 26 30
M  V30 25 1 31 32
M  V30 26 1 31 33
M  V30 27 1 31 34
M  V30 28 1 31 35
M  V30 29 1 36 37
M  V30 30 1 36 38
M  V30 31 1 36 39
M  V30 32 1 36 40
M  V30 33 1 41 42
M  V30 34 1 41 43
M  V30 35 1 41 44
M  V30 36 1 41 45
M  V30 37 1 46 47
M  V30 38 1 47 48
M  V30 39 1 49 50
M  V30 40 1 50 51
M  V30 41 1 52 53
M  V30 42 1 53 54
M  V30 43 1 55 56
M  V30 44 1 56 57
M  V30 45 1 58 59
M  V30 46 1 59 60
M  V30 47 1 61 62
M  V30 48 1 62 63
M  V30 49 1 64 65
M  V30 50 1 65 66
M  V30 51 1 67 68
M  V30 52 1 68 69
M  V30 53 1 70 71
M  V30 54 1 71 72
M  V30 55 1 73 74
M  V30 56 1 74 75
M  V30 57 1 76 77
M  V30 58 1 77 78
M  V30 59 1 79 80
M  V30 60 1 80 81
M  V30 61 1 82 83
M  V30 62 1 83 84
M  V30 63 1 85 86
M  V30 64 1 86 87
M  V30 65 1 88 89
M  V30 66 1 89 90
M  V30 67 1 91 92
M  V30 68 1 92 93
M  V30 69 1 94 95
M  V30 70 1 95 96
M  V30 71 1 97 98
M  V30 72 1 98 99
M  V30 73 1 2 82
M  V30 74 1 3 97
M  V30 75 1 4 70
M  V30 76 1 5 73
M  V30 77 1 7 46
M  V30 78 1 8 91
M  V30 79 1 9 67
M  V30 80 1 10 88
M  V30 81 1 12 58
M  V30 82 1 13 79
M  V30 83 1 14 64
M  V30 84 1 15 55
M  V30 85 1 17 66
M  V30 86 1 18 52
M  V30 87 1 19 85
M  V30 88 1 20 61
M  V30 89 1 22 48
M  V30 90 1 23 81
M  V30 91 1 24 87
M  V30 92 1 25 49
M  V30 93 1 27 54
M  V30 94 1 28 76
M  V30 95 1 29 72
M  V30 96 1 30 63
M  V30 97 1 32 84
M  V30 98 1 33 78
M  V30 99 1 34 57
M  V30 100 1 35 60
M  V30 101 1 37 51
M  V30 102 1 38 94
M  V30 103 1 39 69
M  V30 104 1 40 75
M  V30 105 1 42 93
M  V30 106 1 43 99
M  V30 107 1 44 96
M  V30 108 1 45 90
M  V30 END BOND
M  V30 END CTAB
M  END

$$$$
