
     RDKit          3D

  0  0  0  0  0  0  0  0  0  0999 V3000
M  V30 BEGIN CTAB
M  V30 COUNTS 99 108 0 0 0
M  V30 BEGIN ATOM
M  V30 1 Pd 0.9795 -3.8481 1.6919 0
M  V30 2 Pb 0.5354 -4.6793 1.3685 0
M  V30 3 Pb 1.3749 -2.9720 1.9730 0
M  V30 4 Pb 0.3079 -3.7853 2.4365 0
M  V30 5 Pb 1.6052 -3.9439 0.9160 0
M  V30 6 Pd 5.2623 4.4839 1.5819 0
M  V30 7 Pb 4.4548 3.9921 1.2480 0
M  V30 8 Pb 6.1543 4.7546 1.9405 0
M  V30 9 Pb 5.6151 4.4994 0.6532 0
M  V30 10 Pb 4.9781 4.2373 2.5131 0
M  V30 11 Pd -3.8573 1.9730 -4.0878 0
M  V30 12 Pb -3.5098 1.0946 -4.4221 0
M  V30 13 Pb -3.0484 2.4627 -4.4292 0
M  V30 14 Pb -4.2663 2.7990 -3.6994 0
M  V30 15 Pb -4.6588 1.4730 -3.7680 0
M  V30 16 Pd -4.7330 3.0301 0.9326 0
M  V30 17 Pb -5.1221 3.4436 0.1072 0
M  V30 18 Pb -4.2753 2.6167 1.7188 0
M  V30 19 Pb -4.0229 3.7256 0.8774 0
M  V30 20 Pb -5.4087 2.2907 0.9541 0
M  V30 21 Pd 1.3737 2.9219 -2.6004 0
M  V30 22 Pb 1.8340 2.6960 -1.7412 0
M  V30 23 Pb 0.8250 3.1415 -3.4101 0
M  V30 24 Pb 0.9431 3.6723 -2.1079 0
M  V30 25 Pb 1.7562 2.1252 -3.0766 0
M  V30 26 Pd -4.2989 -2.0085 2.6667 0
M  V30 27 Pb -3.8752 -1.1491 2.9505 0
M  V30 28 Pb -4.7713 -2.8614 2.4275 0
M  V30 29 Pb -3.5464 -2.5133 3.1025 0
M  V30 30 Pb -5.0414 -1.4834 2.2416 0
M  V30 31 Pd -5.1109 -4.7014 -1.7707 0
M  V30 32 Pb -4.4106 -5.3825 -1.5770 0
M  V30 33 Pb -5.5211 -4.9114 -0.8854 0
M  V30 34 Pb -5.7568 -3.9582 -1.9193 0
M  V30 35 Pb -4.6207 -4.3776 -2.5825 0
M  V30 36 Pd 4.8062 -1.4326 -1.8433 0
M  V30 37 Pb 4.1803 -1.1119 -2.5557 0
M  V30 38 Pb 5.4163 -1.7508 -1.1131 0
M  V30 39 Pb 5.3144 -0.5850 -1.9818 0
M  V30 40 Pb 4.2877 -2.2761 -1.7169 0
M  V30 41 Pd 5.5379 -0.3244 3.3959 0
M  V30 42 Pb 6.4717 -0.0358 3.6085 0
M  V30 43 Pb 4.5846 -0.5318 3.1663 0
M  V30 44 Pb 5.8818 -1.0659 2.8189 0
M  V30 45 Pb 5.2111 0.5052 3.8676 0
M  V30 46 Ag 0.1601 -5.2477 1.0645 0
M  V30 47 Fe -1.8099 -5.7302 -0.1596 0
M  V30 48 Ag -3.8534 -5.8246 -1.3541 0
M  V30 49 Ag -3.4633 4.2021 0.7557 0
M  V30 50 Fe -1.4098 4.3733 -0.4112 0
M  V30 51 Ag 0.5708 4.1662 -1.6926 0
M  V30 52 Ag -5.2323 1.0534 -3.5377 0
M  V30 53 Fe -5.8542 -1.1034 -2.7774 0
M  V30 54 Ag -6.1505 -3.3384 -2.0473 0
M  V30 55 Ag 6.8197 4.6735 2.2615 0
M  V30 56 Fe 7.5209 2.6206 3.1910 0
M  V30 57 Ag 7.0953 0.3588 3.7192 0
M  V30 58 Ag -3.3364 0.3875 -4.6120 0
M  V30 59 Fe -3.7098 -1.8770 -3.9884 0
M  V30 60 Ag -4.2493 -4.0313 -3.1377 0
M  V30 61 Ag 5.8755 4.3050 -0.0147 0
M  V30 62 Fe 5.8719 2.2811 -1.2449 0
M  V30 63 Ag 5.6250 0.0852 -2.0992 0
M  V30 64 Ba 3.9166 3.5001 1.0580 0
M  V30 65 Ga 3.0274 3.0831 -0.0463 0
M  V30 66 Ba 2.0838 2.5456 -1.0490 0
M  V30 67 Ba 1.9922 1.5197 -3.4586 0
M  V30 68 Ga 2.8680 0.3467 -3.2520 0
M  V30 69 Ba 3.7322 -0.8425 -3.0951 0
M  V30 70 Ba -3.9037 2.2945 2.2840 0
M  V30 71 Ga -3.7400 0.9029 2.7418 0
M  V30 72 Ba -3.5905 -0.4958 3.1822 0
M  V30 73 Ba 4.7934 3.9496 3.1871 0
M  V30 74 Ga 4.8737 2.5603 3.7092 0
M  V30 75 Ba 4.9748 1.1547 4.1817 0
M  V30 76 Ba -5.8822 1.7070 0.9803 0
M  V30 77 Ga -5.7477 0.3119 1.4532 0
M  V30 78 Ba -5.5972 -1.0802 1.9303 0
M  V30 79 Ba -4.6465 3.3542 -3.3660 0
M  V30 80 Ga -5.0016 3.5988 -1.9525 0
M  V30 81 Ba -5.3277 3.7963 -0.5248 0
M  V30 82 Ba -0.2023 -3.7713 2.9924 0
M  V30 83 Ga -1.5946 -3.3052 3.1908 0
M  V30 84 Ba -2.9834 -2.8660 3.4619 0
M  V30 85 Ba 2.0158 -4.0953 0.3047 0
M  V30 86 Ga 2.9703 -3.4654 -0.6268 0
M  V30 87 Ba 3.9287 -2.9235 -1.6087 0
M  V30 88 Ba 5.8361 -2.0403 -0.5585 0
M  V30 89 Ga 6.0012 -1.8072 0.8920 0
M  V30 90 Ba 6.1662 -1.5716 2.3420 0
M  V30 91 Ba 1.5937 -2.2831 2.1778 0
M  V30 92 Ga 2.7835 -1.5105 2.5892 0
M  V30 93 Ba 3.8497 -0.5809 3.0140 0
M  V30 94 Ba -5.1636 -3.4845 2.2654 0
M  V30 95 Ga -5.4746 -4.2667 1.0516 0
M  V30 96 Ba -5.7599 -5.0226 -0.1848 0
M  V30 97 Ba -2.4462 2.8170 -4.7158 0
M  V30 98 Ga -1.0338 3.0559 -4.3417 0
M  V30 99 Ba 0.3826 3.3116 -3.9949 0
M  V30 END ATOM
M  V30 BEGIN BOND
M  V30 1 1 1 2
M  V30 2 1 1 3
M  V30 3 1 1 4
M  V30 4 1 1 5
M  V30 5 1 6 7
M  V30 6 1 6 8
M  V30 7 1 6 9
M  V30 8 1 6 10
M  V30 9 1 11 12
M  V30 10 1 11 13
M  V30 11 1 11 14
M  V30 12 1 11 15
M  V30 13 1 16 17
M  V30 14 1 16 18
M  V30 15 1 16 19
M  V30 16 1 16 20
M  V30 17 1 21 22
M  V30 18 1 21 23
M  V30 19 1 21 24
M  V30 20 1 21 25
M  V30 21 1 26 27
M  V30 22 1 26 28
M  V30 23 1 26 29
M  V30 24 1 26 30
M  V30 25 1 31 32
M  V30 26 1 31 33
M  V30 27 1 31 34
M  V30 28 1 31 35
M  V30 29 1 36 37
M  V30 30 1 36 38
M  V30 31 1 36 39
M  V30 32 1 36 40
M  V30 33 1 41 42
M  V30 34 1 41 43
M  V30 35 1 41 44
M  V30 36 1 41 45
M  V30 37 1 46 47
M  V30 38 1 47 48
M  V30 39 1 49 50
M  V30 40 1 50 51
M  V30 41 1 52 53
M  V30 42 1 53 54
M  V30 43 1 55 56
M  V30 44 1 56 57
M  V30 45 1 58 59
M  V30 46 1 59 60
M  V30 47 1 61 62
M  V30 48 1 62 63
M  V30 49 1 64 65
M  V30 50 1 65 66
M  V30 51 1 67 68
M  V30 52 1 68 69
M  V30 53 1 70 71
M  V30 54 1 71 72
M  V30 55 1 73 74
M  V30 56 1 74 75
M  V30 57 1 76 77
M  V30 58 1 77 78
M  V30 59 1 79 80
M  V30 60 1 80 81
M  V30 61 1 82 83
M  V30 62 1 83 84
M  V30 63 1 85 86
M  V30 64 1 86 87
M  V30 65 1 88 89
M  V30 66 1 89 90
M  V30 67 1 91 92
M  V30 68 1 92 93
M  V30 69 1 94 95
M  V30 70 1 95 96
M  V30 71 1 97 98
M  V30 72 1 98 99
M  V30 73 1 2 46
M  V30 74 1 3 91
M  V30 75 1 4 82
M  V30 76 1 5 85
M  V30 77 1 7 64
M  V30 78 1 8 55
M  V30 79 1 9 61
M  V30 80 1 10 73
M  V30 81 1 12 58
M  V30 82 1 13 97
M  V30 83 1 14 79
M  V30 84 1 15 52
M  V30 85 1 17 81
M  V30 86 1 18 70
M  V30 87 1 19 49
M  V30 88 1 20 76
M  V30 89 1 22 66
M  V30 90 1 23 99
M  V30 91 1 24 51
M  V30 92 1 25 67
M  V30 93 1 27 72
M  V30 94 1 28 94
M  V30 95 1 29 84
M  V30 96 1 30 78
M  V30 97 1 32 48
M  V30 98 1 33 96
M  V30 99 1 34 54
M  V30 100 1 35 60
M  V30 101 1 37 69
M  V30 102 1 38 88
M  V30 103 1 39 63
M  V30 104 1 40 87
M  V30 105 1 42 57
M  V30 106 1 43 93
M  V30 107 1 44 90
M  V30 108 1 45 75
M  V30 END BOND
M  V30 END CTAB
M  END

$$$$
