
     RDKit          3D

  0  0  0  0  0  0  0  0  0  0999 V3000
M  V30 BEGIN CTAB
M  V30 COUNTS 99 108 0 0 0
M  V30 BEGIN ATOM
M  V30 1 Pd -5.2263 0.9607 -3.4109 0
M  V30 2 Pb -5.6973 1.7793 -3.0787 0
M  V30 3 Pb -4.7883 1.4932 -4.1366 0
M  V30 4 Pb -4.7546 0.1381 -3.7309 0
M  V30 5 Pb -5.6768 0.4188 -2.7018 0
M  V30 6 Pd -4.2071 -3.8176 -1.1832 0
M  V30 7 Pb -4.4190 -4.2051 -0.2929 0
M  V30 8 Pb -3.9915 -3.4198 -2.0757 0
M  V30 9 Pb -4.9396 -3.1474 -1.0679 0
M  V30 10 Pb -3.4482 -4.4877 -1.2811 0
M  V30 11 Pd -0.7751 3.3599 5.4060 0
M  V30 12 Pb -0.5539 3.0181 6.3155 0
M  V30 13 Pb 0.1908 3.2025 5.1506 0
M  V30 14 Pb -1.7397 3.4111 5.6343 0
M  V30 15 Pb -0.9680 3.7554 4.4860 0
M  V30 16 Pd 0.7677 -6.2695 1.0397 0
M  V30 17 Pb 1.4196 -6.2133 1.7948 0
M  V30 18 Pb 1.5019 -6.1452 0.3706 0
M  V30 19 Pb 0.0325 -6.3916 1.6971 0
M  V30 20 Pb 0.0809 -6.2550 0.2910 0
M  V30 21 Pd -0.5936 3.8890 -4.1746 0
M  V30 22 Pb -1.1490 4.5567 -3.6798 0
M  V30 23 Pb 0.0039 3.2483 -4.6627 0
M  V30 24 Pb -1.3905 3.6165 -4.7145 0
M  V30 25 Pb 0.2096 4.1569 -3.6478 0
M  V30 26 Pd 3.2312 -0.8468 5.0250 0
M  V30 27 Pb 3.3903 -1.8264 5.1285 0
M  V30 28 Pb 3.0389 0.1395 4.8892 0
M  V30 29 Pb 3.0537 -1.0362 4.0607 0
M  V30 30 Pb 3.2570 -0.6844 6.0068 0
M  V30 31 Pd 5.1164 -2.8347 -0.1589 0
M  V30 32 Pb 5.8017 -2.9603 -0.8748 0
M  V30 33 Pb 5.6400 -2.0457 0.1625 0
M  V30 34 Pb 4.3582 -2.5967 0.4458 0
M  V30 35 Pb 4.6204 -3.6377 -0.4946 0
M  V30 36 Pd 5.9530 0.9375 -2.9341 0
M  V30 37 Pb 6.4301 0.9210 -2.0592 0
M  V30 38 Pb 6.3660 0.0492 -3.1439 0
M  V30 39 Pb 5.5094 1.7957 -2.6866 0
M  V30 40 Pb 5.3588 0.9166 -3.7400 0
M  V30 41 Pd -4.0981 4.5749 0.3592 0
M  V30 42 Pb -3.6053 5.0037 -0.3996 0
M  V30 43 Pb -4.8891 4.4662 -0.2431 0
M  V30 44 Pb -3.2785 4.6521 0.9590 0
M  V30 45 Pb -4.6299 4.2486 1.1313 0
M  V30 46 Ag 0.5172 2.8030 -4.9875 0
M  V30 47 Fe 2.6669 1.8152 -4.7429 0
M  V30 48 Ag 4.8261 0.9371 -4.2704 0
M  V30 49 Ag -4.4363 -4.5302 0.3720 0
M  V30 50 Fe -2.7593 -5.6045 1.6304 0
M  V30 51 Ag -0.5952 -6.4148 2.0890 0
M  V30 52 Ag 0.8471 4.3058 -3.2881 0
M  V30 53 Fe 3.0172 3.4686 -2.8284 0
M  V30 54 Ag 5.1159 2.4088 -2.5221 0
M  V30 55 Ag -2.4790 3.4096 5.6484 0
M  V30 56 Fe -4.0833 3.6756 3.9434 0
M  V30 57 Ag -4.9345 4.0668 1.7810 0
M  V30 58 Ag 1.8736 -6.1041 2.3804 0
M  V30 59 Fe 2.7551 -4.4444 3.8291 0
M  V30 60 Ag 3.4654 -2.5698 5.0984 0
M  V30 61 Ag -0.2610 2.7189 6.9304 0
M  V30 62 Fe 1.4395 1.1240 7.2993 0
M  V30 63 Ag 3.0832 -0.4556 6.6902 0
M  V30 64 Ba 0.9167 3.0753 4.9584 0
M  V30 65 Ga 1.8817 1.9411 4.8880 0
M  V30 66 Ba 2.9300 0.8870 4.7773 0
M  V30 67 Ba 6.0609 -1.4539 0.3491 0
M  V30 68 Ga 6.4356 -0.2730 -0.4459 0
M  V30 69 Ba 6.7084 0.8384 -1.3713 0
M  V30 70 Ba -1.5378 5.0841 -3.3158 0
M  V30 71 Ga -2.4072 5.1825 -2.1276 0
M  V30 72 Ba -3.2857 5.3885 -0.9602 0
M  V30 73 Ba 2.0374 -6.0642 -0.1497 0
M  V30 74 Ga 3.1518 -5.1364 -0.4298 0
M  V30 75 Ba 4.2818 -4.2491 -0.7715 0
M  V30 76 Ba -2.8978 -5.0102 -1.3886 0
M  V30 77 Ga -1.6632 -5.5831 -0.7716 0
M  V30 78 Ba -0.4199 -6.2572 -0.2883 0
M  V30 79 Ba 2.8301 -1.2280 3.3720 0
M  V30 80 Ga 3.3583 -1.7984 2.1198 0
M  V30 81 Ba 3.7507 -2.3616 0.8156 0
M  V30 82 Ba -1.0371 4.1032 3.8038 0
M  V30 83 Ga -1.9212 4.3541 2.6234 0
M  V30 84 Ba -2.6295 4.7330 1.3612 0
M  V30 85 Ba -6.0186 0.0033 -2.1797 0
M  V30 86 Ga -5.7554 -1.3149 -1.5738 0
M  V30 87 Ba -5.4788 -2.6346 -0.9772 0
M  V30 88 Ba -4.4016 -0.4827 -3.9628 0
M  V30 89 Ga -4.1159 -1.7985 -3.3583 0
M  V30 90 Ba -3.8369 -3.1102 -2.7417 0
M  V30 91 Ba -4.4692 1.8800 -4.6956 0
M  V30 92 Ga -3.2253 2.6492 -4.8936 0
M  V30 93 Ba -1.9904 3.4245 -5.1225 0
M  V30 94 Ba 6.2672 -2.9585 -1.4619 0
M  V30 95 Ga 6.5242 -1.8402 -2.3902 0
M  V30 96 Ba 6.6738 -0.6319 -3.2249 0
M  V30 97 Ba -6.0537 2.3862 -2.8164 0
M  V30 98 Ga -5.7691 3.3846 -1.7674 0
M  V30 99 Ba -5.4654 4.3729 -0.7142 0
M  V30 END ATOM
M  V30 BEGIN BOND
M  V30 1 1 1 2
M  V30 2 1 1 3
M  V30 3 1 1 4
M  V30 4 1 1 5
M  V30 5 1 6 7
M  V30 6 1 6 8
M  V30 7 1 6 9
M  V30 8 1 6 10
M  V30 9 1 11 12
M  V30 10 1 11 13
M  V30 11 1 11 14
M  V30 12 1 11 15
M  V30 13 1 16 17
M  V30 14 1 16 18
M  V30 15 1 16 19
M  V30 16 1 16 20
M  V30 17 1 21 22
M  V30 18 1 21 23
M  V30 19 1 21 24
M  V30 20 1 21 25
M  V30 21 1 26 27
M  V30 22 1 26 28
M  V30 23 1 26 29
M  V30 24 1 26 30
M  V30 25 1 31 32
M  V30 26 1 31 33
M  V30 27 1 31 34
M  V30 28 1 31 35
M  V30 29 1 36 37
M  V30 30 1 36 38
M  V30 31 1 36 39
M  V30 32 1 36 40
M  V30 33 1 41 42
M  V30 34 1 41 43
M  V30 35 1 41 44
M  V30 36 1 41 45
M  V30 37 1 46 47
M  V30 38 1 47 48
M  V30 39 1 49 50
M  V30 40 1 50 51
M  V30 41 1 52 53
M  V30 42 1 53 54
M  V30 43 1 55 56
M  V30 44 1 56 57
M  V30 45 1 58 59
M  V30 46 1 59 60
M  V30 47 1 61 62
M  V30 48 1 62 63
M  V30 49 1 64 65
M  V30 50 1 65 66
M  V30 51 1 67 68
M  V30 52 1 68 69
M  V30 53 1 70 71
M  V30 54 1 71 72
M  V30 55 1 73 74
M  V30 56 1 74 75
M  V30 57 1 76 77
M  V30 58 1 77 78
M  V30 59 1 79 80
M  V30 60 1 80 81
M  V30 61 1 82 83
M  V30 62 1 83 84
M  V30 63 1 85 86
M  V30 64 1 86 87
M  V30 65 1 88 89
M  V30 66 1 89 90
M  V30 67 1 91 92
M  V30 68 1 92 93
M  V30 69 1 94 95
M  V30 70 1 95 96
M  V30 71 1 97 98
M  V30 72 1 98 99
M  V30 73 1 2 97
M  V30 74 1 3 91
M  V30 75 1 4 88
M  V30 76 1 5 85
M  V30 77 1 7 49
M  V30 78 1 8 90
M  V30 79 1 9 87
M  V30 80 1 10 76
M  V30 81 1 12 61
M  V30 82 1 13 64
M  V30 83 1 14 55
M  V30 84 1 15 82
M  V30 85 1 17 58
M  V30 86 1 18 73
M  V30 87 1 19 51
M  V30 88 1 20 78
M  V30 89 1 22 70
M  V30 90 1 23 46
M  V30 91 1 24 93
M  V30 92 1 25 52
M  V30 93 1 27 60
M  V30 94 1 28 66
M  V30 95 1 29 79
M  V30 96 1 30 63
M  V30 97 1 32 94
M  V30 98 1 33 67
M  V30 99 1 34 81
M  V30 100 1 35 75
M  V30 101 1 37 69
M  V30 102 1 38 96
M  V30 103 1 39 54
M  V30 104 1 40 48
M  V30 105 1 42 72
M  V30 106 1 43 99
M  V30 107 1 44 84
M  V30 108 1 45 57
M  V30 END BOND
M  V30 END CTAB
M  END

$$$$
