
     RDKit          3D

  0  0  0  0  0  0  0  0  0  0999 V3000
M  V30 BEGIN CTAB
M  V30 COUNTS 99 108 0 0 0
M  V30 BEGIN ATOM
M  V30 1 Pd 2.1193 -1.9477 0.4152 0
M  V30 2 Pb 1.6101 -2.2740 1.2121 0
M  V30 3 Pb 2.5661 -2.2907 -0.4172 0
M  V30 4 Pb 2.5062 -1.2957 -0.2349 0
M  V30 5 Pb 1.2798 -1.8369 -0.1160 0
M  V30 6 Pd -0.9347 5.8515 4.5907 0
M  V30 7 Pb -0.1999 6.4842 4.3075 0
M  V30 8 Pb -1.5897 6.5941 4.4741 0
M  V30 9 Pb -1.6539 5.1851 4.7985 0
M  V30 10 Pb -0.2330 5.1467 4.6554 0
M  V30 11 Pd -3.6318 -5.2747 -2.6608 0
M  V30 12 Pb -3.2499 -5.6445 -3.5065 0
M  V30 13 Pb -3.3172 -6.0799 -2.1548 0
M  V30 14 Pb -3.8956 -4.4593 -3.1925 0
M  V30 15 Pb -3.9819 -4.8374 -1.8271 0
M  V30 16 Pd 1.1165 8.3337 -0.0552 0
M  V30 17 Pb 0.4217 8.9879 0.2340 0
M  V30 18 Pb 1.7393 7.5716 -0.3257 0
M  V30 19 Pb 0.7723 8.3834 -0.9855 0
M  V30 20 Pb 1.3734 8.2336 0.9148 0
M  V30 21 Pd -1.1830 -0.8917 -5.1551 0
M  V30 22 Pb -0.9972 -1.5214 -5.9056 0
M  V30 23 Pb -0.2476 -0.5469 -5.1125 0
M  V30 24 Pb -1.3479 -0.4141 -4.2954 0
M  V30 25 Pb -2.1094 -1.2823 -5.0898 0
M  V30 26 Pd 1.1102 -6.4487 -1.9776 0
M  V30 27 Pb 1.7775 -5.7424 -2.2390 0
M  V30 28 Pb 1.6256 -6.5284 -1.1256 0
M  V30 29 Pb 0.3875 -7.0626 -1.6623 0
M  V30 30 Pb 0.4983 -6.1327 -2.6996 0
M  V30 31 Pd 2.5931 -0.9738 2.8130 0
M  V30 32 Pb 2.5544 -0.0331 3.1394 0
M  V30 33 Pb 2.2134 -1.2140 3.7052 0
M  V30 34 Pb 2.9380 -0.6560 1.9265 0
M  V30 35 Pb 2.6746 -1.9419 2.5459 0
M  V30 36 Pd 1.3032 2.6806 -1.5494 0
M  V30 37 Pb 1.9348 2.0523 -1.0774 0
M  V30 38 Pb 0.5965 1.9800 -1.6292 0
M  V30 39 Pb 0.7507 3.2473 -2.1484 0
M  V30 40 Pb 1.9125 3.4821 -1.3955 0
M  V30 41 Pd -2.2567 -1.4520 3.9351 0
M  V30 42 Pb -2.7658 -0.6400 4.2252 0
M  V30 43 Pb -1.6640 -2.1942 3.6413 0
M  V30 44 Pb -1.5482 -1.2811 4.6159 0
M  V30 45 Pb -2.9485 -1.7168 3.2583 0
M  V30 46 Ag -1.9362 7.2131 4.2520 0
M  V30 47 Fe -1.3991 8.6418 2.4511 0
M  V30 48 Ag -0.1505 9.3255 0.5679 0
M  V30 49 Ag -2.9267 -5.7491 -4.1708 0
M  V30 50 Fe -1.8208 -4.2492 -5.6250 0
M  V30 51 Ag -0.9641 -2.1522 -6.2975 0
M  V30 52 Ag 0.7217 -1.8418 -0.6123 0
M  V30 53 Fe -0.0544 -3.4594 -2.1456 0
M  V30 54 Ag 0.0409 -5.6464 -3.0198 0
M  V30 55 Ag 0.4780 8.2247 -1.6433 0
M  V30 56 Fe 0.1950 6.0844 -2.5761 0
M  V30 57 Ag 0.4185 3.7418 -2.5882 0
M  V30 58 Ag 1.9773 -6.4023 -0.4742 0
M  V30 59 Fe 2.4098 -4.5891 1.0067 0
M  V30 60 Ag 2.7573 -2.6772 2.3829 0
M  V30 61 Ag 2.6989 -0.8870 -0.8312 0
M  V30 62 Fe 1.7856 -0.4271 -2.9702 0
M  V30 63 Ag 0.4282 -0.3007 -4.9099 0
M  V30 64 Ag -2.1709 4.6503 4.9113 0
M  V30 65 Fe -2.7050 2.3420 4.7138 0
M  V30 66 Ag -3.0735 0.0083 4.4487 0
M  V30 67 Ag 0.3455 4.6743 4.6607 0
M  V30 68 Fe 1.4024 2.6441 4.0400 0
M  V30 69 Ag 2.5312 0.6400 3.4623 0
M  V30 70 Ag -4.2410 -4.4547 -1.2306 0
M  V30 71 Fe -3.8539 -3.2166 0.7647 0
M  V30 72 Ag -3.4460 -1.9826 2.7584 0
M  V30 73 Ba 2.2164 6.9995 -0.5231 0
M  V30 74 Ga 2.2197 5.5469 -0.8959 0
M  V30 75 Ba 2.3510 4.1031 -1.2796 0
M  V30 76 Ba -3.0355 -6.6828 -1.8052 0
M  V30 77 Ga -1.6421 -7.1201 -1.5911 0
M  V30 78 Ba -0.2122 -7.4519 -1.4376 0
M  V30 79 Ba 2.8572 -2.6095 -1.0378 0
M  V30 80 Ga 2.5772 -3.8914 -1.7312 0
M  V30 81 Ba 2.2641 -5.1832 -2.3913 0
M  V30 82 Ba 3.2043 -0.3800 1.2783 0
M  V30 83 Ga 2.7746 0.6049 0.2570 0
M  V30 84 Ba 2.4591 1.5652 -0.8272 0
M  V30 85 Ba 1.2397 -2.6740 1.7305 0
M  V30 86 Ga 0.0397 -2.6528 2.5856 0
M  V30 87 Ba -1.1392 -2.6944 3.4695 0
M  V30 88 Ba -1.4484 -0.1493 -3.6032 0
M  V30 89 Ga -0.7053 0.7038 -2.6595 0
M  V30 90 Ba -0.0115 1.5441 -1.6680 0
M  V30 91 Ba 0.3791 6.9290 4.0964 0
M  V30 92 Ga 0.9274 7.5395 2.8558 0
M  V30 93 Ba 1.5296 8.1789 1.6553 0
M  V30 94 Ba -4.0918 -3.8632 -3.6189 0
M  V30 95 Ga -3.4216 -2.7266 -4.3020 0
M  V30 96 Ba -2.8044 -1.5720 -5.0049 0
M  V30 97 Ba 1.8932 -1.2839 4.3793 0
M  V30 98 Ga 0.4779 -1.2736 4.7892 0
M  V30 99 Ba -0.9656 -1.2601 5.0845 0
M  V30 END ATOM
M  V30 BEGIN BOND
M  V30 1 1 1 2
M  V30 2 1 1 3
M  V30 3 1 1 4
M  V30 4 1 1 5
M  V30 5 1 6 7
M  V30 6 1 6 8
M  V30 7 1 6 9
M  V30 8 1 6 10
M  V30 9 1 11 12
M  V30 10 1 11 13
M  V30 11 1 11 14
M  V30 12 1 11 15
M  V30 13 1 16 17
M  V30 14 1 16 18
M  V30 15 1 16 19
M  V30 16 1 16 20
M  V30 17 1 21 22
M  V30 18 1 21 23
M  V30 19 1 21 24
M  V30 20 1 21 25
M  V30 21 1 26 27
M  V30 22 1 26 28
M  V30 23 1 26 29
M  V30 24 1 26 30
M  V30 25 1 31 32
M  V30 26 1 31 33
M  V30 27 1 31 34
M  V30 28 1 31 35
M  V30 29 1 36 37
M  V30 30 1 36 38
M  V30 31 1 36 39
M  V30 32 1 36 40
M  V30 33 1 41 42
M  V30 34 1 41 43
M  V30 35 1 41 44
M  V30 36 1 41 45
M  V30 37 1 46 47
M  V30 38 1 47 48
M  V30 39 1 49 50
M  V30 40 1 50 51
M  V30 41 1 52 53
M  V30 42 1 53 54
M  V30 43 1 55 56
M  V30 44 1 56 57
M  V30 45 1 58 59
M  V30 46 1 59 60
M  V30 47 1 61 62
M  V30 48 1 62 63
M  V30 49 1 64 65
M  V30 50 1 65 66
M  V30 51 1 67 68
M  V30 52 1 68 69
M  V30 53 1 70 71
M  V30 54 1 71 72
M  V30 55 1 73 74
M  V30 56 1 74 75
M  V30 57 1 76 77
M  V30 58 1 77 78
M  V30 59 1 79 80
M  V30 60 1 80 81
M  V30 61 1 82 83
M  V30 62 1 83 84
M  V30 63 1 85 86
M  V30 64 1 86 87
M  V30 65 1 88 89
M  V30 66 1 89 90
M  V30 67 1 91 92
M  V30 68 1 92 93
M  V30 69 1 94 95
M  V30 70 1 95 96
M  V30 71 1 97 98
M  V30 72 1 98 99
M  V30 73 1 2 85
M  V30 74 1 3 79
M  V30 75 1 4 61
M  V30 76 1 5 52
M  V30 77 1 7 91
M  V30 78 1 8 46
M  V30 79 1 9 64
M  V30 80 1 10 67
M  V30 81 1 12 49
M  V30 82 1 13 76
M  V30 83 1 14 94
M  V30 84 1 15 70
M  V30 85 1 17 48
M  V30 86 1 18 73
M  V30 87 1 19 55
M  V30 88 1 20 93
M  V30 89 1 22 51
M  V30 90 1 23 63
M  V30 91 1 24 88
M  V30 92 1 25 96
M  V30 93 1 27 81
M  V30 94 1 28 58
M  V30 95 1 29 78
M  V30 96 1 30 54
M  V30 97 1 32 69
M  V30 98 1 33 97
M  V30 99 1 34 82
M  V30 100 1 35 60
M  V30 101 1 37 84
M  V30 102 1 38 90
M  V30 103 1 39 57
M  V30 104 1 40 75
M  V30 105 1 42 66
M  V30 106 1 43 87
M  V30 107 1 44 99
M  V30 108 1 45 72
M  V30 END BOND
M  V30 END CTAB
M  END

$$$$
