
     RDKit          3D

  0  0  0  0  0  0  0  0  0  0999 V3000
M  V30 BEGIN CTAB
M  V30 COUNTS 99 108 0 0 0
M  V30 BEGIN ATOM
M  V30 1 Pd -2.9789 2.6235 -4.0630 0
M  V30 2 Pb -3.7117 3.0403 -3.5232 0
M  V30 3 Pb -2.4848 3.4888 -3.9720 0
M  V30 4 Pb -3.5054 1.7847 -4.2076 0
M  V30 5 Pb -2.2285 2.1979 -4.5729 0
M  V30 6 Pd 5.6332 2.2748 0.4669 0
M  V30 7 Pb 5.5896 1.4464 1.0275 0
M  V30 8 Pb 5.1247 2.7793 1.1601 0
M  V30 9 Pb 6.1321 1.7855 -0.2532 0
M  V30 10 Pb 5.7392 3.1462 -0.0380 0
M  V30 11 Pd -0.5355 -0.5774 5.7338 0
M  V30 12 Pb -1.5244 -0.4702 5.7301 0
M  V30 13 Pb 0.4514 -0.7488 5.7160 0
M  V30 14 Pb -0.6280 -1.4568 6.1921 0
M  V30 15 Pb -0.5003 0.2667 5.1865 0
M  V30 16 Pd -1.3306 -6.7157 2.5869 0
M  V30 17 Pb -1.2769 -6.5431 3.5667 0
M  V30 18 Pb -1.4220 -6.8138 1.5952 0
M  V30 19 Pb -0.3323 -6.6490 2.5417 0
M  V30 20 Pb -2.3290 -6.7257 2.6241 0
M  V30 21 Pd 3.2567 -2.9824 2.3970 0
M  V30 22 Pb 3.8616 -2.1843 2.3467 0
M  V30 23 Pb 3.1264 -2.7346 3.3597 0
M  V30 24 Pb 2.8073 -3.8787 2.4837 0
M  V30 25 Pb 3.3804 -3.1677 1.4229 0
M  V30 26 Pd -6.2611 -3.9956 -1.7904 0
M  V30 27 Pb -5.4979 -4.6122 -1.9885 0
M  V30 28 Pb -6.9459 -3.3185 -1.5262 0
M  V30 29 Pb -6.0648 -3.4362 -2.5936 0
M  V30 30 Pb -6.3892 -4.5106 -0.9448 0
M  V30 31 Pd -5.2972 2.3957 1.1148 0
M  V30 32 Pb -5.2721 2.9287 0.2662 0
M  V30 33 Pb -6.1413 1.9630 0.8019 0
M  V30 34 Pb -4.3971 2.7109 1.4363 0
M  V30 35 Pb -5.3523 1.8783 1.9630 0
M  V30 36 Pd 4.3515 0.2239 -4.3847 0
M  V30 37 Pb 4.1921 -0.6599 -3.9478 0
M  V30 38 Pb 4.4926 1.1224 -4.7940 0
M  V30 39 Pb 5.2133 0.2945 -3.8782 0
M  V30 40 Pb 3.4612 0.1966 -4.8412 0
M  V30 41 Pd 3.0894 6.8160 -2.1502 0
M  V30 42 Pb 2.8152 6.9627 -1.2040 0
M  V30 43 Pb 2.1621 6.9771 -2.4784 0
M  V30 44 Pb 3.3768 6.5553 -3.0672 0
M  V30 45 Pb 3.9907 6.5016 -1.8255 0
M  V30 46 Ag 3.4548 -3.2834 0.6865 0
M  V30 47 Fe 3.7704 -2.3480 -1.4721 0
M  V30 48 Ag 4.0904 -1.3036 -3.5794 0
M  V30 49 Ag -1.5894 -6.8335 0.8635 0
M  V30 50 Fe -3.1710 -6.0211 -0.7129 0
M  V30 51 Ag -4.8946 -5.0570 -2.0344 0
M  V30 52 Ag -0.5855 0.8751 4.7433 0
M  V30 53 Fe -2.0747 1.9502 3.2224 0
M  V30 54 Ag -3.7141 2.8405 1.7369 0
M  V30 55 Ag 4.7156 3.2554 1.5592 0
M  V30 56 Fe 3.5325 5.2119 0.9699 0
M  V30 57 Ag 2.7141 6.8919 -0.4721 0
M  V30 58 Ag -2.2592 -0.3772 5.6568 0
M  V30 59 Fe -3.9134 0.5229 4.2216 0
M  V30 60 Ag -5.3401 1.5082 2.6091 0
M  V30 61 Ag -3.0757 -6.6897 2.5788 0
M  V30 62 Fe -4.8481 -5.8558 1.2391 0
M  V30 63 Ag -6.3745 -4.8996 -0.3059 0
M  V30 64 Ag -0.7015 -2.1586 6.4318 0
M  V30 65 Fe -0.9718 -4.3417 5.5541 0
M  V30 66 Ag -1.2303 -6.3194 4.2765 0
M  V30 67 Ag -3.8828 1.1555 -4.3679 0
M  V30 68 Fe -4.8972 -0.9078 -3.7733 0
M  V30 69 Ag -5.9065 -2.9664 -3.1543 0
M  V30 70 Ag -1.6828 1.8358 -4.9430 0
M  V30 71 Fe 0.5489 1.0280 -5.0733 0
M  V30 72 Ag 2.7880 0.2362 -5.1716 0
M  V30 73 Ag 4.5411 1.8167 -5.0656 0
M  V30 74 Fe 4.1375 4.0951 -4.5535 0
M  V30 75 Ag 3.6226 6.2442 -3.6981 0
M  V30 76 Ag -2.1686 4.1666 -3.9045 0
M  V30 77 Fe -0.3768 5.6147 -3.3310 0
M  V30 78 Ag 1.4616 6.9945 -2.7376 0
M  V30 79 Ag -7.3752 -2.7424 -1.3166 0
M  V30 80 Fe -7.2258 -0.5660 -0.3827 0
M  V30 81 Ag -6.7183 1.5510 0.5616 0
M  V30 82 Ba 5.6184 0.8636 1.5000 0
M  V30 83 Ga 4.9234 -0.3861 1.8711 0
M  V30 84 Ba 4.3967 -1.6582 2.4058 0
M  V30 85 Ba -4.2281 3.3990 -3.1121 0
M  V30 86 Ga -4.7548 3.3312 -1.7333 0
M  V30 87 Ba -5.3276 3.3247 -0.3713 0
M  V30 88 Ba 0.4177 -6.6006 2.5437 0
M  V30 89 Ga 1.4532 -5.5424 2.5247 0
M  V30 90 Ba 2.5993 -4.6058 2.5138 0
M  V30 91 Ba 5.8830 3.8210 -0.3625 0
M  V30 92 Ga 5.2179 4.9991 -0.9830 0
M  V30 93 Ba 4.6672 6.2271 -1.6190 0
M  V30 94 Ba 6.5088 1.4336 -0.8026 0
M  V30 95 Ga 6.1750 0.8894 -2.1367 0
M  V30 96 Ba 5.8439 0.3441 -3.4710 0
M  V30 97 Ba 1.1694 -0.9716 5.7516 0
M  V30 98 Ga 2.1103 -1.7151 4.8855 0
M  V30 99 Ba 3.0874 -2.4564 4.0586 0
M  V30 END ATOM
M  V30 BEGIN BOND
M  V30 1 1 1 2
M  V30 2 1 1 3
M  V30 3 1 1 4
M  V30 4 1 1 5
M  V30 5 1 6 7
M  V30 6 1 6 8
M  V30 7 1 6 9
M  V30 8 1 6 10
M  V30 9 1 11 12
M  V30 10 1 11 13
M  V30 11 1 11 14
M  V30 12 1 11 15
M  V30 13 1 16 17
M  V30 14 1 16 18
M  V30 15 1 16 19
M  V30 16 1 16 20
M  V30 17 1 21 22
M  V30 18 1 21 23
M  V30 19 1 21 24
M  V30 20 1 21 25
M  V30 21 1 26 27
M  V30 22 1 26 28
M  V30 23 1 26 29
M  V30 24 1 26 30
M  V30 25 1 31 32
M  V30 26 1 31 33
M  V30 27 1 31 34
M  V30 28 1 31 35
M  V30 29 1 36 37
M  V30 30 1 36 38
M  V30 31 1 36 39
M  V30 32 1 36 40
M  V30 33 1 41 42
M  V30 34 1 41 43
M  V30 35 1 41 44
M  V30 36 1 41 45
M  V30 37 1 46 47
M  V30 38 1 47 48
M  V30 39 1 49 50
M  V30 40 1 50 51
M  V30 41 1 52 53
M  V30 42 1 53 54
M  V30 43 1 55 56
M  V30 44 1 56 57
M  V30 45 1 58 59
M  V30 46 1 59 60
M  V30 47 1 61 62
M  V30 48 1 62 63
M  V30 49 1 64 65
M  V30 50 1 65 66
M  V30 51 1 67 68
M  V30 52 1 68 69
M  V30 53 1 70 71
M  V30 54 1 71 72
M  V30 55 1 73 74
M  V30 56 1 74 75
M  V30 57 1 76 77
M  V30 58 1 77 78
M  V30 59 1 79 80
M  V30 60 1 80 81
M  V30 61 1 82 83
M  V30 62 1 83 84
M  V30 63 1 85 86
M  V30 64 1 86 87
M  V30 65 1 88 89
M  V30 66 1 89 90
M  V30 67 1 91 92
M  V30 68 1 92 93
M  V30 69 1 94 95
M  V30 70 1 95 96
M  V30 71 1 97 98
M  V30 72 1 98 99
M  V30 73 1 2 85
M  V30 74 1 3 76
M  V30 75 1 4 67
M  V30 76 1 5 70
M  V30 77 1 7 82
M  V30 78 1 8 55
M  V30 79 1 9 94
M  V30 80 1 10 91
M  V30 81 1 12 58
M  V30 82 1 13 97
M  V30 83 1 14 64
M  V30 84 1 15 52
M  V30 85 1 17 66
M  V30 86 1 18 49
M  V30 87 1 19 88
M  V30 88 1 20 61
M  V30 89 1 22 84
M  V30 90 1 23 99
M  V30 91 1 24 90
M  V30 92 1 25 46
M  V30 93 1 27 51
M  V30 94 1 28 79
M  V30 95 1 29 69
M  V30 96 1 30 63
M  V30 97 1 32 87
M  V30 98 1 33 81
M  V30 99 1 34 54
M  V30 100 1 35 60
M  V30 101 1 37 48
M  V30 102 1 38 73
M  V30 103 1 39 96
M  V30 104 1 40 72
M  V30 105 1 42 57
M  V30 106 1 43 78
M  V30 107 1 44 75
M  V30 108 1 45 93
M  V30 END BOND
M  V30 END CTAB
M  END

$$$$
