
     RDKit          3D

  0  0  0  0  0  0  0  0  0  0999 V3000
M  V30 BEGIN CTAB
M  V30 COUNTS 99 108 0 0 0
M  V30 BEGIN ATOM
M  V30 1 Pd 0.1360 -1.1935 3.4040 0
M  V30 2 Pb 0.6148 -0.8144 4.1927 0
M  V30 3 Pb 0.3865 -0.3453 2.9255 0
M  V30 4 Pb -0.4490 -1.6681 4.0646 0
M  V30 5 Pb 0.3351 -2.1619 3.5806 0
M  V30 6 Pd 3.2085 0.1982 -6.1736 0
M  V30 7 Pb 4.1851 0.2835 -6.3599 0
M  V30 8 Pb 3.2156 1.1957 -6.1439 0
M  V30 9 Pb 3.2496 -0.7788 -6.0111 0
M  V30 10 Pb 2.2525 0.1767 -5.8806 0
M  V30 11 Pd 2.8044 2.2060 2.3227 0
M  V30 12 Pb 2.5230 3.1712 2.3382 0
M  V30 13 Pb 2.6263 2.1396 3.3023 0
M  V30 14 Pb 2.9947 1.2304 2.3555 0
M  V30 15 Pb 3.0301 2.1901 1.3402 0
M  V30 16 Pd 4.0346 3.3220 -1.8438 0
M  V30 17 Pb 3.5436 4.1773 -1.9569 0
M  V30 18 Pb 3.5055 3.1597 -1.0047 0
M  V30 19 Pb 4.0106 3.3680 -2.8493 0
M  V30 20 Pb 4.8681 3.5185 -2.3597 0
M  V30 21 Pd -5.9271 0.5433 0.5251 0
M  V30 22 Pb -5.5136 1.4296 0.2364 0
M  V30 23 Pb -5.7963 0.1131 -0.3731 0
M  V30 24 Pb -6.3140 -0.3138 0.8521 0
M  V30 25 Pb -6.0174 0.9031 1.4457 0
M  V30 26 Pd 2.8084 -1.8265 -1.2636 0
M  V30 27 Pb 2.8364 -1.7452 -0.2725 0
M  V30 28 Pb 2.8841 -2.0218 -2.2453 0
M  V30 29 Pb 3.1378 -0.8744 -1.3243 0
M  V30 30 Pb 2.3734 -2.7214 -1.1903 0
M  V30 31 Pd -2.3931 -3.1518 -1.8585 0
M  V30 32 Pb -2.7906 -3.9518 -1.4028 0
M  V30 33 Pb -1.9886 -2.4105 -2.3969 0
M  V30 34 Pb -3.2813 -2.6994 -2.0022 0
M  V30 35 Pb -1.5044 -3.5954 -1.7162 0
M  V30 36 Pd -2.9134 -5.2578 3.1449 0
M  V30 37 Pb -1.9198 -5.3480 3.1920 0
M  V30 38 Pb -2.9928 -5.6674 2.2377 0
M  V30 39 Pb -3.8879 -5.0671 3.0890 0
M  V30 40 Pb -2.8332 -4.7485 3.9951 0
M  V30 41 Pd -1.8643 4.8874 1.4909 0
M  V30 42 Pb -0.9965 5.1345 1.9319 0
M  V30 43 Pb -2.6844 4.5473 0.9882 0
M  V30 44 Pb -2.2768 4.6118 2.3505 0
M  V30 45 Pb -1.4614 5.2491 0.6572 0
M  V30 46 Ag 1.5560 0.1736 -5.6017 0
M  V30 47 Fe -0.0817 -0.8591 -4.2242 0
M  V30 48 Ag -1.7394 -1.8668 -2.8520 0
M  V30 49 Ag -5.9505 1.2071 2.1161 0
M  V30 50 Fe -4.4560 2.8060 2.9829 0
M  V30 51 Ag -2.6928 4.3637 2.9087 0
M  V30 52 Ag 4.8781 0.5525 -6.3343 0
M  V30 53 Fe 5.6773 2.1124 -4.7508 0
M  V30 54 Ag 5.4434 3.4726 -2.8331 0
M  V30 55 Ag 3.0516 4.7289 -2.0217 0
M  V30 56 Fe 0.9604 5.3265 -1.0929 0
M  V30 57 Ag -1.0719 5.5455 0.0972 0
M  V30 58 Ag 0.6078 0.3121 2.6258 0
M  V30 59 Fe 1.8216 1.6350 1.0619 0
M  V30 60 Ag 3.0432 3.0480 -0.4175 0
M  V30 61 Ag -6.5442 -0.9635 1.1348 0
M  V30 62 Fe -5.7527 -2.9807 2.0884 0
M  V30 63 Ag -4.5871 -4.8394 2.9772 0
M  V30 64 Ba 3.0771 0.4919 2.4062 0
M  V30 65 Ga 3.0018 -0.6128 1.4423 0
M  V30 66 Ba 2.9235 -1.7069 0.4667 0
M  V30 67 Ba 0.4888 -2.8987 3.6358 0
M  V30 68 Ga -0.3106 -4.1317 3.4727 0
M  V30 69 Ba -1.1787 -5.3160 3.3004 0
M  V30 70 Ba -0.8835 -1.9919 4.5863 0
M  V30 71 Ga -1.8018 -3.1424 4.6283 0
M  V30 72 Ba -2.6995 -4.3084 4.5803 0
M  V30 73 Ba 0.9554 -0.4171 4.7260 0
M  V30 74 Ga 1.7504 0.7981 4.4974 0
M  V30 75 Ba 2.5015 1.9676 4.0189 0
M  V30 76 Ba 3.2475 -1.4765 -5.7583 0
M  V30 77 Ga 3.1060 -1.8976 -4.3526 0
M  V30 78 Ba 2.9607 -2.3024 -2.9423 0
M  V30 79 Ba -5.2479 2.1195 0.0234 0
M  V30 80 Ga -4.2272 3.1636 0.3602 0
M  V30 81 Ba -3.2760 4.3040 0.5600 0
M  V30 82 Ba -3.0140 -4.6087 -1.1089 0
M  V30 83 Ga -3.0669 -5.2549 0.2185 0
M  V30 84 Ba -3.1274 -5.9094 1.5415 0
M  V30 85 Ba 2.2787 3.8807 2.4311 0
M  V30 86 Ga 0.9833 4.5912 2.3031 0
M  V30 87 Ba -0.3059 5.3136 2.1788 0
M  V30 88 Ba 3.3038 1.9323 -6.0401 0
M  V30 89 Ga 3.6118 2.7046 -4.8159 0
M  V30 90 Ba 3.9252 3.4778 -3.5938 0
M  V30 91 Ba 3.2326 2.1121 0.6125 0
M  V30 92 Ga 3.2809 0.9836 -0.3580 0
M  V30 93 Ba 3.3322 -0.1396 -1.3343 0
M  V30 94 Ba -5.7228 -0.2691 -1.0200 0
M  V30 95 Ga -4.7997 -1.2938 -1.5659 0
M  V30 96 Ba -3.9157 -2.3209 -2.1686 0
M  V30 97 Ba 1.9955 -3.3667 -1.1734 0
M  V30 98 Ga 0.5651 -3.6709 -1.3761 0
M  V30 99 Ba -0.8658 -3.9719 -1.5808 0
M  V30 END ATOM
M  V30 BEGIN BOND
M  V30 1 1 1 2
M  V30 2 1 1 3
M  V30 3 1 1 4
M  V30 4 1 1 5
M  V30 5 1 6 7
M  V30 6 1 6 8
M  V30 7 1 6 9
M  V30 8 1 6 10
M  V30 9 1 11 12
M  V30 10 1 11 13
M  V30 11 1 11 14
M  V30 12 1 11 15
M  V30 13 1 16 17
M  V30 14 1 16 18
M  V30 15 1 16 19
M  V30 16 1 16 20
M  V30 17 1 21 22
M  V30 18 1 21 23
M  V30 19 1 21 24
M  V30 20 1 21 25
M  V30 21 1 26 27
M  V30 22 1 26 28
M  V30 23 1 26 29
M  V30 24 1 26 30
M  V30 25 1 31 32
M  V30 26 1 31 33
M  V30 27 1 31 34
M  V30 28 1 31 35
M  V30 29 1 36 37
M  V30 30 1 36 38
M  V30 31 1 36 39
M  V30 32 1 36 40
M  V30 33 1 41 42
M  V30 34 1 41 43
M  V30 35 1 41 44
M  V30 36 1 41 45
M  V30 37 1 46 47
M  V30 38 1 47 48
M  V30 39 1 49 50
M  V30 40 1 50 51
M  V30 41 1 52 53
M  V30 42 1 53 54
M  V30 43 1 55 56
M  V30 44 1 56 57
M  V30 45 1 58 59
M  V30 46 1 59 60
M  V30 47 1 61 62
M  V30 48 1 62 63
M  V30 49 1 64 65
M  V30 50 1 65 66
M  V30 51 1 67 68
M  V30 52 1 68 69
M  V30 53 1 70 71
M  V30 54 1 71 72
M  V30 55 1 73 74
M  V30 56 1 74 75
M  V30 57 1 76 77
M  V30 58 1 77 78
M  V30 59 1 79 80
M  V30 60 1 80 81
M  V30 61 1 82 83
M  V30 62 1 83 84
M  V30 63 1 85 86
M  V30 64 1 86 87
M  V30 65 1 88 89
M  V30 66 1 89 90
M  V30 67 1 91 92
M  V30 68 1 92 93
M  V30 69 1 94 95
M  V30 70 1 95 96
M  V30 71 1 97 98
M  V30 72 1 98 99
M  V30 73 1 2 73
M  V30 74 1 3 58
M  V30 75 1 4 70
M  V30 76 1 5 67
M  V30 77 1 7 52
M  V30 78 1 8 88
M  V30 79 1 9 76
M  V30 80 1 10 46
M  V30 81 1 12 85
M  V30 82 1 13 75
M  V30 83 1 14 64
M  V30 84 1 15 91
M  V30 85 1 17 55
M  V30 86 1 18 60
M  V30 87 1 19 90
M  V30 88 1 20 54
M  V30 89 1 22 79
M  V30 90 1 23 94
M  V30 91 1 24 61
M  V30 92 1 25 49
M  V30 93 1 27 66
M  V30 94 1 28 78
M  V30 95 1 29 93
M  V30 96 1 30 97
M  V30 97 1 32 82
M  V30 98 1 33 48
M  V30 99 1 34 96
M  V30 100 1 35 99
M  V30 101 1 37 69
M  V30 102 1 38 84
M  V30 103 1 39 63
M  V30 104 1 40 72
M  V30 105 1 42 87
M  V30 106 1 43 81
M  V30 107 1 44 51
M  V30 108 1 45 57
M  V30 END BOND
M  V30 END CTAB
M  END

$$$$
