
     RDKit          3D

  0  0  0  0  0  0  0  0  0  0999 V3000
M  V30 BEGIN CTAB
M  V30 COUNTS 99 108 0 0 0
M  V30 BEGIN ATOM
M  V30 1 Pd -4.3962 -3.5857 -0.1972 0
M  V30 2 Pb -4.5450 -4.1957 -0.9689 0
M  V30 3 Pb -3.9129 -3.0689 0.5390 0
M  V30 4 Pb -4.7282 -4.1922 0.5130 0
M  V30 5 Pb -4.2158 -2.8694 -0.8575 0
M  V30 6 Pd 1.4028 -0.6389 5.0465 0
M  V30 7 Pb 1.9276 -0.2380 4.2960 0
M  V30 8 Pb 2.0269 -1.4120 4.9964 0
M  V30 9 Pb 0.6334 0.0110 4.9213 0
M  V30 10 Pb 0.9431 -1.0141 5.8442 0
M  V30 11 Pd 0.9227 -1.7988 0.9561 0
M  V30 12 Pb 0.4437 -1.1330 0.4024 0
M  V30 13 Pb 0.0534 -1.9729 1.4628 0
M  V30 14 Pb 1.4801 -2.4107 1.5243 0
M  V30 15 Pb 1.6200 -1.5982 0.2768 0
M  V30 16 Pd -2.4597 2.4485 -0.7602 0
M  V30 17 Pb -2.0445 3.3462 -0.9266 0
M  V30 18 Pb -2.7879 2.7717 0.1233 0
M  V30 19 Pb -1.8960 2.0808 -1.5030 0
M  V30 20 Pb -2.8625 1.5462 -0.5680 0
M  V30 21 Pd -4.0345 -1.0931 3.5739 0
M  V30 22 Pb -3.9911 -0.9446 2.5767 0
M  V30 23 Pb -4.6026 -1.9122 3.4542 0
M  V30 24 Pb -3.3491 -0.3614 3.7497 0
M  V30 25 Pb -4.0679 -1.2753 4.5508 0
M  V30 26 Pd 0.8962 2.3204 0.3987 0
M  V30 27 Pb 1.6748 2.9216 0.5793 0
M  V30 28 Pb 1.4569 1.7297 -0.2004 0
M  V30 29 Pb 0.4104 2.5350 1.2493 0
M  V30 30 Pb 1.1377 2.6312 -0.5131 0
M  V30 31 Pd 1.9242 4.1836 -3.3861 0
M  V30 32 Pb 2.5978 4.4194 -2.6814 0
M  V30 33 Pb 2.5780 3.6508 -3.9412 0
M  V30 34 Pb 1.1961 3.8345 -3.9667 0
M  V30 35 Pb 1.2294 4.6601 -2.8447 0
M  V30 36 Pd 4.4312 0.2981 -2.2781 0
M  V30 37 Pb 4.5963 -0.6906 -2.2400 0
M  V30 38 Pb 4.1356 1.2429 -2.3567 0
M  V30 39 Pb 4.4624 0.3777 -3.2674 0
M  V30 40 Pb 4.3638 0.3498 -1.2820 0
M  V30 41 Pd 0.8910 -2.3280 -3.1355 0
M  V30 42 Pb 0.3081 -3.0934 -3.4203 0
M  V30 43 Pb 0.2328 -1.6989 -3.5388 0
M  V30 44 Pb 1.6422 -2.9034 -2.8178 0
M  V30 45 Pb 1.4351 -1.5477 -2.7960 0
M  V30 46 Ag -4.3598 -4.5649 -1.5890 0
M  V30 47 Fe -2.3528 -4.3255 -2.8325 0
M  V30 48 Ag -0.2194 -3.6046 -3.5857 0
M  V30 49 Ag -4.0098 -2.2795 -1.2466 0
M  V30 50 Fe -2.0426 -1.0187 -1.0643 0
M  V30 51 Ag 0.0594 -0.7190 -0.0705 0
M  V30 52 Ag 1.8202 -1.2945 -0.3729 0
M  V30 53 Fe 0.4632 0.2939 -1.5001 0
M  V30 54 Ag -1.3274 1.7989 -1.9072 0
M  V30 55 Ag 2.3990 0.0360 3.7808 0
M  V30 56 Fe 3.2980 0.2065 1.5890 0
M  V30 57 Ag 4.3016 0.4808 -0.5461 0
M  V30 58 Ag 0.4839 -1.2435 6.3773 0
M  V30 59 Fe -1.8533 -1.5052 6.3616 0
M  V30 60 Ag -3.9296 -1.4327 5.2601 0
M  V30 61 Ag 0.6530 3.4414 -4.2877 0
M  V30 62 Fe -0.0026 1.1686 -4.2573 0
M  V30 63 Ag -0.1580 -1.1611 -3.8749 0
M  V30 64 Ba -3.1739 0.8704 -0.4308 0
M  V30 65 Ga -3.5544 0.0324 0.7344 0
M  V30 66 Ba -3.9746 -0.8889 1.8201 0
M  V30 67 Ba -3.4854 -2.7703 1.1097 0
M  V30 68 Ga -2.0534 -2.4108 1.4000 0
M  V30 69 Ba -0.6493 -2.0263 1.7808 0
M  V30 70 Ba 1.4301 2.9206 -1.1325 0
M  V30 71 Ga 2.6173 2.4774 -1.8666 0
M  V30 72 Ba 3.8091 1.8978 -2.4898 0
M  V30 73 Ba -2.8040 2.9611 0.8436 0
M  V30 74 Ga -1.5036 2.9032 1.5258 0
M  V30 75 Ba -0.0690 2.7247 1.7964 0
M  V30 76 Ba 4.6233 -1.4418 -2.1907 0
M  V30 77 Ga 3.5238 -2.4109 -2.3762 0
M  V30 78 Ba 2.2975 -3.2002 -2.6099 0
M  V30 79 Ba -5.0194 -4.4508 1.1443 0
M  V30 80 Ga -5.0391 -3.5926 2.3406 0
M  V30 81 Ba -4.9534 -2.5788 3.4066 0
M  V30 82 Ba 1.8985 1.3270 -0.6712 0
M  V30 83 Ga 1.8360 0.1557 -1.5854 0
M  V30 84 Ba 1.8807 -0.9936 -2.5278 0
M  V30 85 Ba 0.0270 0.4572 4.7787 0
M  V30 86 Ga -1.3967 0.2789 4.3495 0
M  V30 87 Ba -2.8283 0.1766 3.9217 0
M  V30 88 Ba 2.4023 -2.0172 4.7773 0
M  V30 89 Ga 2.2460 -2.5218 3.4014 0
M  V30 90 Ba 1.9171 -2.8080 1.9926 0
M  V30 91 Ba 3.0008 3.2120 -4.3957 0
M  V30 92 Ga 3.7294 1.9297 -4.2525 0
M  V30 93 Ba 4.4261 0.6564 -3.9583 0
M  V30 94 Ba 2.2675 3.3816 0.5413 0
M  V30 95 Ga 2.7354 4.0225 -0.7074 0
M  V30 96 Ba 3.0096 4.5477 -2.0634 0
M  V30 97 Ba -1.7246 4.0182 -1.0410 0
M  V30 98 Ga -0.5189 4.5081 -1.7421 0
M  V30 99 Ba 0.6876 4.9938 -2.4446 0
M  V30 END ATOM
M  V30 BEGIN BOND
M  V30 1 1 1 2
M  V30 2 1 1 3
M  V30 3 1 1 4
M  V30 4 1 1 5
M  V30 5 1 6 7
M  V30 6 1 6 8
M  V30 7 1 6 9
M  V30 8 1 6 10
M  V30 9 1 11 12
M  V30 10 1 11 13
M  V30 11 1 11 14
M  V30 12 1 11 15
M  V30 13 1 16 17
M  V30 14 1 16 18
M  V30 15 1 16 19
M  V30 16 1 16 20
M  V30 17 1 21 22
M  V30 18 1 21 23
M  V30 19 1 21 24
M  V30 20 1 21 25
M  V30 21 1 26 27
M  V30 22 1 26 28
M  V30 23 1 26 29
M  V30 24 1 26 30
M  V30 25 1 31 32
M  V30 26 1 31 33
M  V30 27 1 31 34
M  V30 28 1 31 35
M  V30 29 1 36 37
M  V30 30 1 36 38
M  V30 31 1 36 39
M  V30 32 1 36 40
M  V30 33 1 41 42
M  V30 34 1 41 43
M  V30 35 1 41 44
M  V30 36 1 41 45
M  V30 37 1 46 47
M  V30 38 1 47 48
M  V30 39 1 49 50
M  V30 40 1 50 51
M  V30 41 1 52 53
M  V30 42 1 53 54
M  V30 43 1 55 56
M  V30 44 1 56 57
M  V30 45 1 58 59
M  V30 46 1 59 60
M  V30 47 1 61 62
M  V30 48 1 62 63
M  V30 49 1 64 65
M  V30 50 1 65 66
M  V30 51 1 67 68
M  V30 52 1 68 69
M  V30 53 1 70 71
M  V30 54 1 71 72
M  V30 55 1 73 74
M  V30 56 1 74 75
M  V30 57 1 76 77
M  V30 58 1 77 78
M  V30 59 1 79 80
M  V30 60 1 80 81
M  V30 61 1 82 83
M  V30 62 1 83 84
M  V30 63 1 85 86
M  V30 64 1 86 87
M  V30 65 1 88 89
M  V30 66 1 89 90
M  V30 67 1 91 92
M  V30 68 1 92 93
M  V30 69 1 94 95
M  V30 70 1 95 96
M  V30 71 1 97 98
M  V30 72 1 98 99
M  V30 73 1 2 46
M  V30 74 1 3 67
M  V30 75 1 4 79
M  V30 76 1 5 49
M  V30 77 1 7 55
M  V30 78 1 8 88
M  V30 79 1 9 85
M  V30 80 1 10 58
M  V30 81 1 12 51
M  V30 82 1 13 69
M  V30 83 1 14 90
M  V30 84 1 15 52
M  V30 85 1 17 97
M  V30 86 1 18 73
M  V30 87 1 19 54
M  V30 88 1 20 64
M  V30 89 1 22 66
M  V30 90 1 23 81
M  V30 91 1 24 87
M  V30 92 1 25 60
M  V30 93 1 27 94
M  V30 94 1 28 82
M  V30 95 1 29 75
M  V30 96 1 30 70
M  V30 97 1 32 96
M  V30 98 1 33 91
M  V30 99 1 34 61
M  V30 100 1 35 99
M  V30 101 1 37 76
M  V30 102 1 38 72
M  V30 103 1 39 93
M  V30 104 1 40 57
M  V30 105 1 42 48
M  V30 106 1 43 63
M  V30 107 1 44 78
M  V30 108 1 45 84
M  V30 END BOND
M  V30 END CTAB
M  END

$$$$
