
     RDKit          3D

  0  0  0  0  0  0  0  0  0  0999 V3000
M  V30 BEGIN CTAB
M  V30 COUNTS 99 108 0 0 0
M  V30 BEGIN ATOM
M  V30 1 Pd 3.7358 0.3197 2.4586 0
M  V30 2 Pb 3.9541 1.2862 2.5843 0
M  V30 3 Pb 2.8152 0.5983 2.1819 0
M  V30 4 Pb 4.6882 0.0679 2.6301 0
M  V30 5 Pb 3.4984 -0.6390 2.2926 0
M  V30 6 Pd -5.9346 0.7432 3.3996 0
M  V30 7 Pb -6.1867 0.2967 2.5377 0
M  V30 8 Pb -5.6601 1.1611 4.2651 0
M  V30 9 Pb -6.1114 -0.1189 3.8668 0
M  V30 10 Pb -5.6393 1.5810 2.9377 0
M  V30 11 Pd -1.7873 1.6903 -4.5378 0
M  V30 12 Pb -1.7720 2.4424 -3.8776 0
M  V30 13 Pb -2.6109 1.2904 -4.1296 0
M  V30 14 Pb -1.7596 0.9459 -5.2031 0
M  V30 15 Pb -0.9736 2.1095 -4.9430 0
M  V30 16 Pd 0.7983 -2.8444 -4.3714 0
M  V30 17 Pb 0.2115 -2.4638 -5.0846 0
M  V30 18 Pb 1.5825 -2.3195 -4.6979 0
M  V30 19 Pb 0.0210 -3.3697 -4.0284 0
M  V30 20 Pb 1.4019 -3.2024 -3.6569 0
M  V30 21 Pd -4.0504 -2.5539 -1.1131 0
M  V30 22 Pb -4.7774 -2.1314 -0.5607 0
M  V30 23 Pb -4.1445 -1.7628 -1.7253 0
M  V30 24 Pb -3.4127 -3.0317 -1.7213 0
M  V30 25 Pb -3.9977 -3.3785 -0.5395 0
M  V30 26 Pd 6.8981 -0.4890 -1.2342 0
M  V30 27 Pb 6.5516 -0.4559 -2.1700 0
M  V30 28 Pb 7.2959 0.4185 -1.3651 0
M  V30 29 Pb 7.1691 -0.5127 -0.2711 0
M  V30 30 Pb 6.3903 -1.3442 -1.1272 0
M  V30 31 Pd 3.6041 5.7272 -2.0317 0
M  V30 32 Pb 3.7765 5.8059 -1.0529 0
M  V30 33 Pb 4.5743 5.5166 -2.1468 0
M  V30 34 Pb 3.4008 5.4930 -2.9811 0
M  V30 35 Pb 2.6164 5.8013 -1.8907 0
M  V30 36 Pd -1.6484 -4.7190 3.4280 0
M  V30 37 Pb -2.1494 -5.1110 2.6563 0
M  V30 38 Pb -1.1899 -4.2041 4.1501 0
M  V30 39 Pb -2.5203 -4.6283 3.9030 0
M  V30 40 Pb -0.7746 -4.7232 2.9441 0
M  V30 41 Pd -1.4627 2.2296 4.1188 0
M  V30 42 Pb -2.1102 2.3506 4.8676 0
M  V30 43 Pb -0.8707 2.0505 3.3333 0
M  V30 44 Pb -0.9549 1.5621 4.6605 0
M  V30 45 Pb -2.0629 2.7905 3.5460 0
M  V30 46 Ag 4.0720 2.0249 2.6127 0
M  V30 47 Fe 4.0431 3.9951 1.2925 0
M  V30 48 Ag 3.9171 5.7258 -0.3240 0
M  V30 49 Ag 2.2082 -1.9481 -4.8732 0
M  V30 50 Fe 4.2561 -1.1458 -3.9827 0
M  V30 51 Ag 6.2172 -0.4546 -2.8395 0
M  V30 52 Ag -0.3677 2.4754 -5.1936 0
M  V30 53 Fe 1.4527 3.8637 -4.5615 0
M  V30 54 Ag 3.1660 5.2261 -3.6403 0
M  V30 55 Ag -1.6686 3.0285 -3.4196 0
M  V30 56 Fe 0.0005 4.4740 -2.5418 0
M  V30 57 Ag 1.8701 5.7535 -1.8254 0
M  V30 58 Ag 1.9084 -3.4158 -3.1444 0
M  V30 59 Fe 3.9241 -2.7922 -2.0510 0
M  V30 60 Ag 5.9303 -1.9370 -1.1072 0
M  V30 61 Ag -6.1322 -0.7943 4.1821 0
M  V30 62 Fe -4.7987 -2.7474 4.3269 0
M  V30 63 Ag -3.1829 -4.4764 4.2110 0
M  V30 64 Ag 3.2936 -1.3478 2.1495 0
M  V30 65 Fe 1.6506 -3.0525 2.3441 0
M  V30 66 Ag -0.0977 -4.6339 2.6360 0
M  V30 67 Ag -0.8593 -3.7234 4.6185 0
M  V30 68 Fe -0.6314 -1.3902 4.9821 0
M  V30 69 Ag -0.6510 0.9818 5.0219 0
M  V30 70 Ag 7.4899 1.1284 -1.5070 0
M  V30 71 Fe 6.5431 3.2759 -1.8652 0
M  V30 72 Ag 5.2792 5.2631 -2.1664 0
M  V30 73 Ba -6.4068 -0.0751 1.9211 0
M  V30 74 Ga -5.8240 -0.9339 0.8648 0
M  V30 75 Ba -5.3841 -1.8058 -0.2480 0
M  V30 76 Ba -3.9390 -4.0486 -0.1942 0
M  V30 77 Ga -3.2514 -4.6776 0.9555 0
M  V30 78 Ba -2.5869 -5.3495 2.0946 0
M  V30 79 Ba -0.5649 -3.7717 -3.7924 0
M  V30 80 Ga -1.7652 -3.5646 -2.9581 0
M  V30 81 Ba -2.9985 -3.4910 -2.1506 0
M  V30 82 Ba -5.3341 2.2022 2.6448 0
M  V30 83 Ga -3.9689 2.7349 2.8363 0
M  V30 84 Ba -2.5765 3.1396 3.1222 0
M  V30 85 Ba -5.4056 1.4786 4.8942 0
M  V30 86 Ga -4.0548 1.9670 5.2149 0
M  V30 87 Ba -2.6582 2.4033 5.3726 0
M  V30 88 Ba -1.7170 0.3800 -5.6915 0
M  V30 89 Ga -0.9884 -0.9002 -5.6742 0
M  V30 90 Ba -0.2385 -2.1663 -5.6042 0
M  V30 91 Ba 5.4159 -0.1052 2.6842 0
M  V30 92 Ga 6.4102 -0.3310 1.6175 0
M  V30 93 Ba 7.3099 -0.5353 0.4659 0
M  V30 94 Ba 2.1586 0.8359 1.9058 0
M  V30 95 Ga 0.8581 1.3589 2.3666 0
M  V30 96 Ba -0.4728 1.8903 2.7183 0
M  V30 97 Ba -3.2503 1.0053 -3.8543 0
M  V30 98 Ga -3.7087 -0.1062 -2.9922 0
M  V30 99 Ba -4.3127 -1.1658 -2.1553 0
M  V30 END ATOM
M  V30 BEGIN BOND
M  V30 1 1 1 2
M  V30 2 1 1 3
M  V30 3 1 1 4
M  V30 4 1 1 5
M  V30 5 1 6 7
M  V30 6 1 6 8
M  V30 7 1 6 9
M  V30 8 1 6 10
M  V30 9 1 11 12
M  V30 10 1 11 13
M  V30 11 1 11 14
M  V30 12 1 11 15
M  V30 13 1 16 17
M  V30 14 1 16 18
M  V30 15 1 16 19
M  V30 16 1 16 20
M  V30 17 1 21 22
M  V30 18 1 21 23
M  V30 19 1 21 24
M  V30 20 1 21 25
M  V30 21 1 26 27
M  V30 22 1 26 28
M  V30 23 1 26 29
M  V30 24 1 26 30
M  V30 25 1 31 32
M  V30 26 1 31 33
M  V30 27 1 31 34
M  V30 28 1 31 35
M  V30 29 1 36 37
M  V30 30 1 36 38
M  V30 31 1 36 39
M  V30 32 1 36 40
M  V30 33 1 41 42
M  V30 34 1 41 43
M  V30 35 1 41 44
M  V30 36 1 41 45
M  V30 37 1 46 47
M  V30 38 1 47 48
M  V30 39 1 49 50
M  V30 40 1 50 51
M  V30 41 1 52 53
M  V30 42 1 53 54
M  V30 43 1 55 56
M  V30 44 1 56 57
M  V30 45 1 58 59
M  V30 46 1 59 60
M  V30 47 1 61 62
M  V30 48 1 62 63
M  V30 49 1 64 65
M  V30 50 1 65 66
M  V30 51 1 67 68
M  V30 52 1 68 69
M  V30 53 1 70 71
M  V30 54 1 71 72
M  V30 55 1 73 74
M  V30 56 1 74 75
M  V30 57 1 76 77
M  V30 58 1 77 78
M  V30 59 1 79 80
M  V30 60 1 80 81
M  V30 61 1 82 83
M  V30 62 1 83 84
M  V30 63 1 85 86
M  V30 64 1 86 87
M  V30 65 1 88 89
M  V30 66 1 89 90
M  V30 67 1 91 92
M  V30 68 1 92 93
M  V30 69 1 94 95
M  V30 70 1 95 96
M  V30 71 1 97 98
M  V30 72 1 98 99
M  V30 73 1 2 46
M  V30 74 1 3 94
M  V30 75 1 4 91
M  V30 76 1 5 64
M  V30 77 1 7 73
M  V30 78 1 8 85
M  V30 79 1 9 61
M  V30 80 1 10 82
M  V30 81 1 12 55
M  V30 82 1 13 97
M  V30 83 1 14 88
M  V30 84 1 15 52
M  V30 85 1 17 90
M  V30 86 1 18 49
M  V30 87 1 19 79
M  V30 88 1 20 58
M  V30 89 1 22 75
M  V30 90 1 23 99
M  V30 91 1 24 81
M  V30 92 1 25 76
M  V30 93 1 27 51
M  V30 94 1 28 70
M  V30 95 1 29 93
M  V30 96 1 30 60
M  V30 97 1 32 48
M  V30 98 1 33 72
M  V30 99 1 34 54
M  V30 100 1 35 57
M  V30 101 1 37 78
M  V30 102 1 38 67
M  V30 103 1 39 63
M  V30 104 1 40 66
M  V30 105 1 42 87
M  V30 106 1 43 96
M  V30 107 1 44 69
M  V30 108 1 45 84
M  V30 END BOND
M  V30 END CTAB
M  END

$$$$
