
     RDKit          3D

  0  0  0  0  0  0  0  0  0  0999 V3000
M  V30 BEGIN CTAB
M  V30 COUNTS 99 108 0 0 0
M  V30 BEGIN ATOM
M  V30 1 Pd -3.4820 0.6167 -4.3940 0
M  V30 2 Pb -4.1150 -0.1559 -4.3315 0
M  V30 3 Pb -2.8463 1.3882 -4.4469 0
M  V30 4 Pb -3.6457 0.7166 -5.3762 0
M  V30 5 Pb -3.3031 0.4887 -3.4185 0
M  V30 6 Pd -0.0008 1.5611 -7.9987 0
M  V30 7 Pb 0.9799 1.6165 -7.8098 0
M  V30 8 Pb -0.9839 1.4554 -8.1479 0
M  V30 9 Pb -0.2045 2.1627 -7.2271 0
M  V30 10 Pb 0.2041 0.8908 -8.7120 0
M  V30 11 Pd 3.2007 -1.5958 3.2115 0
M  V30 12 Pb 2.7677 -2.2931 3.7784 0
M  V30 13 Pb 3.5349 -0.8349 2.6523 0
M  V30 14 Pb 3.7417 -1.2885 3.9956 0
M  V30 15 Pb 2.7357 -2.0016 2.4256 0
M  V30 16 Pd 2.9674 1.2635 8.0460 0
M  V30 17 Pb 2.3146 1.8586 8.4982 0
M  V30 18 Pb 2.4292 0.4932 8.3849 0
M  V30 19 Pb 3.3059 2.0657 7.5523 0
M  V30 20 Pb 3.6131 0.6791 7.5581 0
M  V30 21 Pd -2.6579 -3.5470 -1.7434 0
M  V30 22 Pb -2.9560 -3.0710 -0.9161 0
M  V30 23 Pb -2.3352 -4.0128 -2.5656 0
M  V30 24 Pb -1.7537 -3.6687 -1.3383 0
M  V30 25 Pb -3.5238 -3.3504 -2.2029 0
M  V30 26 Pd 2.3608 -2.3646 -6.7881 0
M  V30 27 Pb 2.8906 -1.5212 -6.8616 0
M  V30 28 Pb 2.5319 -2.4174 -5.8036 0
M  V30 29 Pb 2.1024 -2.2544 -7.7475 0
M  V30 30 Pb 1.7453 -3.1411 -6.6813 0
M  V30 31 Pd -1.3133 -0.9861 5.6226 0
M  V30 32 Pb -1.7690 -1.1445 4.7444 0
M  V30 33 Pb -1.9402 -0.2005 5.7000 0
M  V30 34 Pb -0.7200 -1.7854 5.5094 0
M  V30 35 Pb -0.8850 -0.8901 6.5308 0
M  V30 36 Pd 0.4867 0.9351 -0.2163 0
M  V30 37 Pb 0.0647 1.7826 0.1120 0
M  V30 38 Pb 1.4030 1.2010 0.0865 0
M  V30 39 Pb -0.4343 0.6326 -0.4630 0
M  V30 40 Pb 0.9095 0.1221 -0.6198 0
M  V30 41 Pd -1.4335 4.1801 4.2335 0
M  V30 42 Pb -0.5237 4.5972 4.2199 0
M  V30 43 Pb -1.4418 4.3226 5.2159 0
M  V30 44 Pb -2.2281 3.5894 4.3716 0
M  V30 45 Pb -1.4158 4.0673 3.2395 0
M  V30 46 Ag 3.3832 2.6691 7.1116 0
M  V30 47 Fe 1.9831 3.9099 5.6453 0
M  V30 48 Ag 0.1972 4.7737 4.3360 0
M  V30 49 Ag -2.0542 -4.3334 -3.1806 0
M  V30 50 Fe -0.4487 -4.1322 -4.9146 0
M  V30 51 Ag 1.2369 -3.6617 -6.5149 0
M  V30 52 Ag 2.5829 -2.4517 -5.0551 0
M  V30 53 Fe 1.9555 -1.4881 -2.9753 0
M  V30 54 Ag 1.2728 -0.4458 -0.9517 0
M  V30 55 Ag -3.1552 -2.7109 -0.2890 0
M  V30 56 Fe -2.6222 -1.9926 1.9126 0
M  V30 57 Ag -2.1784 -1.2311 4.1194 0
M  V30 58 Ag 2.4260 -2.3890 1.8635 0
M  V30 59 Fe 0.6520 -3.0210 0.4181 0
M  V30 60 Ag -1.0550 -3.7219 -1.0754 0
M  V30 61 Ag 1.7767 2.3179 8.7160 0
M  V30 62 Fe 0.0588 3.5029 7.6155 0
M  V30 63 Ag -1.3695 4.3743 5.9516 0
M  V30 64 Ba 4.1865 -1.1266 4.5788 0
M  V30 65 Ga 4.1198 -0.4185 5.8707 0
M  V30 66 Ba 4.1108 0.2751 7.1722 0
M  V30 67 Ba -0.3054 2.4166 0.2761 0
M  V30 68 Ga -0.8200 3.1863 1.4265 0
M  V30 69 Ba -1.3814 4.0433 2.4902 0
M  V30 70 Ba 0.3970 0.3435 -9.1871 0
M  V30 71 Ga 1.1303 -0.9027 -8.8982 0
M  V30 72 Ba 1.8696 -2.0941 -8.4417 0
M  V30 73 Ba -2.3715 1.9651 -4.5230 0
M  V30 74 Ga -1.3683 2.3014 -5.5513 0
M  V30 75 Ba -0.3861 2.5638 -6.6205 0
M  V30 76 Ba -2.4767 0.3341 5.6469 0
M  V30 77 Ga -2.6175 1.7167 5.1265 0
M  V30 78 Ba -2.7483 3.1023 4.6119 0
M  V30 79 Ba -3.7290 0.8029 -6.1172 0
M  V30 80 Ga -2.7587 1.0828 -7.1931 0
M  V30 81 Ba -1.7258 1.3631 -8.2088 0
M  V30 82 Ba -3.2051 0.3378 -2.6903 0
M  V30 83 Ga -2.1397 0.4029 -1.6719 0
M  V30 84 Ba -1.1458 0.4260 -0.5819 0
M  V30 85 Ba 1.7147 1.5855 -7.6628 0
M  V30 86 Ga 2.5344 0.4180 -7.2926 0
M  V30 87 Ba 3.2036 -0.8448 -6.9327 0
M  V30 88 Ba 2.3704 -2.7778 4.1863 0
M  V30 89 Ga 1.0564 -2.6123 4.8350 0
M  V30 90 Ba -0.2597 -2.3778 5.4581 0
M  V30 91 Ba -4.5699 -0.7441 -4.2277 0
M  V30 92 Ga -4.4026 -1.9709 -3.4250 0
M  V30 93 Ba -4.1344 -3.1609 -2.5949 0
M  V30 94 Ba 1.9079 -0.0065 8.5917 0
M  V30 95 Ga 0.6865 -0.4773 7.8942 0
M  V30 96 Ba -0.5408 -0.9459 7.2056 0
M  V30 97 Ba 3.7233 -0.2343 2.2410 0
M  V30 98 Ga 2.9511 0.5741 1.2747 0
M  V30 99 Ba 2.1058 1.3235 0.3223 0
M  V30 END ATOM
M  V30 BEGIN BOND
M  V30 1 1 1 2
M  V30 2 1 1 3
M  V30 3 1 1 4
M  V30 4 1 1 5
M  V30 5 1 6 7
M  V30 6 1 6 8
M  V30 7 1 6 9
M  V30 8 1 6 10
M  V30 9 1 11 12
M  V30 10 1 11 13
M  V30 11 1 11 14
M  V30 12 1 11 15
M  V30 13 1 16 17
M  V30 14 1 16 18
M  V30 15 1 16 19
M  V30 16 1 16 20
M  V30 17 1 21 22
M  V30 18 1 21 23
M  V30 19 1 21 24
M  V30 20 1 21 25
M  V30 21 1 26 27
M  V30 22 1 26 28
M  V30 23 1 26 29
M  V30 24 1 26 30
M  V30 25 1 31 32
M  V30 26 1 31 33
M  V30 27 1 31 34
M  V30 28 1 31 35
M  V30 29 1 36 37
M  V30 30 1 36 38
M  V30 31 1 36 39
M  V30 32 1 36 40
M  V30 33 1 41 42
M  V30 34 1 41 43
M  V30 35 1 41 44
M  V30 36 1 41 45
M  V30 37 1 46 47
M  V30 38 1 47 48
M  V30 39 1 49 50
M  V30 40 1 50 51
M  V30 41 1 52 53
M  V30 42 1 53 54
M  V30 43 1 55 56
M  V30 44 1 56 57
M  V30 45 1 58 59
M  V30 46 1 59 60
M  V30 47 1 61 62
M  V30 48 1 62 63
M  V30 49 1 64 65
M  V30 50 1 65 66
M  V30 51 1 67 68
M  V30 52 1 68 69
M  V30 53 1 70 71
M  V30 54 1 71 72
M  V30 55 1 73 74
M  V30 56 1 74 75
M  V30 57 1 76 77
M  V30 58 1 77 78
M  V30 59 1 79 80
M  V30 60 1 80 81
M  V30 61 1 82 83
M  V30 62 1 83 84
M  V30 63 1 85 86
M  V30 64 1 86 87
M  V30 65 1 88 89
M  V30 66 1 89 90
M  V30 67 1 91 92
M  V30 68 1 92 93
M  V30 69 1 94 95
M  V30 70 1 95 96
M  V30 71 1 97 98
M  V30 72 1 98 99
M  V30 73 1 2 91
M  V30 74 1 3 73
M  V30 75 1 4 79
M  V30 76 1 5 82
M  V30 77 1 7 85
M  V30 78 1 8 81
M  V30 79 1 9 75
M  V30 80 1 10 70
M  V30 81 1 12 88
M  V30 82 1 13 97
M  V30 83 1 14 64
M  V30 84 1 15 58
M  V30 85 1 17 61
M  V30 86 1 18 94
M  V30 87 1 19 46
M  V30 88 1 20 66
M  V30 89 1 22 55
M  V30 90 1 23 49
M  V30 91 1 24 60
M  V30 92 1 25 93
M  V30 93 1 27 87
M  V30 94 1 28 52
M  V30 95 1 29 72
M  V30 96 1 30 51
M  V30 97 1 32 57
M  V30 98 1 33 76
M  V30 99 1 34 90
M  V30 100 1 35 96
M  V30 101 1 37 67
M  V30 102 1 38 99
M  V30 103 1 39 84
M  V30 104 1 40 54
M  V30 105 1 42 48
M  V30 106 1 43 63
M  V30 107 1 44 78
M  V30 108 1 45 69
M  V30 END BOND
M  V30 END CTAB
M  END

$$$$
