
     RDKit          3D

  0  0  0  0  0  0  0  0  0  0999 V3000
M  V30 BEGIN CTAB
M  V30 COUNTS 99 108 0 0 0
M  V30 BEGIN ATOM
M  V30 1 Pd 3.3902 0.4041 3.0157 0
M  V30 2 Pb 4.0532 1.0667 3.3660 0
M  V30 3 Pb 2.7577 -0.2563 2.6124 0
M  V30 4 Pb 4.1300 -0.2275 2.7843 0
M  V30 5 Pb 2.6400 1.0224 3.2619 0
M  V30 6 Pd -6.6175 -4.1928 1.3995 0
M  V30 7 Pb -6.8485 -3.6178 0.6105 0
M  V30 8 Pb -6.0370 -4.7851 0.8386 0
M  V30 9 Pb -7.0700 -3.5609 2.0258 0
M  V30 10 Pb -6.4157 -4.7833 2.1792 0
M  V30 11 Pd 0.9398 4.5999 -4.2759 0
M  V30 12 Pb 1.1142 5.0350 -3.3914 0
M  V30 13 Pb -0.0400 4.5662 -4.0886 0
M  V30 14 Pb 0.8083 4.0950 -5.1278 0
M  V30 15 Pb 1.9264 4.6042 -4.4189 0
M  V30 16 Pd 1.6453 -0.4640 -4.9428 0
M  V30 17 Pb 1.3926 0.2399 -5.6084 0
M  V30 18 Pb 1.8963 -1.1524 -4.2616 0
M  V30 19 Pb 0.6889 -0.7631 -4.9157 0
M  V30 20 Pb 2.6019 -0.1669 -4.9736 0
M  V30 21 Pd -5.3210 0.4901 -1.9706 0
M  V30 22 Pb -5.9060 -0.2946 -1.7448 0
M  V30 23 Pb -4.8079 1.3000 -2.2535 0
M  V30 24 Pb -4.8369 -0.0507 -2.6593 0
M  V30 25 Pb -5.7108 1.0474 -1.2379 0
M  V30 26 Pd 5.8025 -0.9005 -1.5606 0
M  V30 27 Pb 4.9898 -1.4562 -1.7427 0
M  V30 28 Pb 6.6195 -0.3563 -1.3609 0
M  V30 29 Pb 5.8737 -1.2751 -0.6371 0
M  V30 30 Pb 5.7150 -0.4994 -2.4738 0
M  V30 31 Pd 6.3125 3.8340 0.3875 0
M  V30 32 Pb 6.2837 3.6452 1.3699 0
M  V30 33 Pb 7.0663 3.1940 0.2534 0
M  V30 34 Pb 6.2971 3.9955 -0.5966 0
M  V30 35 Pb 5.5014 4.4164 0.4477 0
M  V30 36 Pd -3.9642 1.4019 5.0493 0
M  V30 37 Pb -4.4597 1.9956 4.4187 0
M  V30 38 Pb -3.4690 0.7047 5.5657 0
M  V30 39 Pb -4.8125 0.8782 5.1159 0
M  V30 40 Pb -3.1004 1.8849 4.8986 0
M  V30 41 Pd -2.1669 -5.1301 2.9780 0
M  V30 42 Pb -2.4885 -5.5294 2.1163 0
M  V30 43 Pb -1.4525 -4.6225 2.5002 0
M  V30 44 Pb -1.9408 -4.6453 3.8222 0
M  V30 45 Pb -2.9260 -5.5786 3.4402 0
M  V30 46 Ag -5.9002 1.4995 -0.6704 0
M  V30 47 Fe -5.4790 2.0271 1.6056 0
M  V30 48 Ag -4.8720 2.3151 3.8823 0
M  V30 49 Ag -0.0328 -0.9760 -4.9077 0
M  V30 50 Fe -2.2381 -0.7359 -4.0539 0
M  V30 51 Ag -4.4148 -0.4335 -3.1481 0
M  V30 52 Ag 2.6728 4.5997 -4.4319 0
M  V30 53 Fe 4.5543 4.3732 -3.0077 0
M  V30 54 Ag 6.2078 4.1095 -1.3294 0
M  V30 55 Ag 1.3232 5.3065 -2.7231 0
M  V30 56 Fe 3.0250 5.1659 -1.0710 0
M  V30 57 Ag 4.8661 4.8113 0.3882 0
M  V30 58 Ag -7.2967 -3.0777 2.5502 0
M  V30 59 Fe -6.5093 -1.2797 3.8842 0
M  V30 60 Ag -5.4477 0.4844 5.0648 0
M  V30 61 Ag 2.0854 1.4905 3.4616 0
M  V30 62 Fe -0.1694 1.8708 4.1124 0
M  V30 63 Ag -2.4332 2.2009 4.7592 0
M  V30 64 Ag -3.0916 0.1248 5.8523 0
M  V30 65 Fe -2.3828 -2.0714 5.2962 0
M  V30 66 Ag -1.8426 -4.2129 4.4263 0
M  V30 67 Ag 2.3381 -0.7745 2.2696 0
M  V30 68 Fe 0.6948 -2.4873 2.2325 0
M  V30 69 Ag -0.9423 -4.2042 2.1472 0
M  V30 70 Ag -0.7690 4.5228 -3.9264 0
M  V30 71 Fe -2.6096 3.2100 -3.2026 0
M  V30 72 Ag -4.4758 1.9324 -2.4813 0
M  V30 73 Ba -7.0658 -3.2154 0.0122 0
M  V30 74 Ga -6.6648 -2.0254 -0.7703 0
M  V30 75 Ba -6.3907 -0.8638 -1.6444 0
M  V30 76 Ba 4.5634 1.5672 3.5954 0
M  V30 77 Ga 5.4099 2.5367 2.8729 0
M  V30 78 Ba 6.2335 3.4889 2.1025 0
M  V30 79 Ba 2.0980 -1.6560 -3.7431 0
M  V30 80 Ga 3.2375 -1.7702 -2.8117 0
M  V30 81 Ba 4.3816 -1.8738 -1.8845 0
M  V30 82 Ba -6.2381 -5.2301 2.7527 0
M  V30 83 Ga -4.9268 -5.5977 3.3047 0
M  V30 84 Ba -3.5477 -5.8631 3.7363 0
M  V30 85 Ba -5.5277 -5.2174 0.4938 0
M  V30 86 Ga -4.1524 -5.5442 0.9286 0
M  V30 87 Ba -2.8023 -5.7869 1.4820 0
M  V30 88 Ba 3.3228 0.0471 -4.9941 0
M  V30 89 Ga 4.4763 -0.0732 -4.0787 0
M  V30 90 Ba 5.6236 -0.1986 -3.1562 0
M  V30 91 Ba 0.7389 3.6715 -5.7418 0
M  V30 92 Ga 0.9554 2.2276 -5.9520 0
M  V30 93 Ba 1.1895 0.7778 -6.0917 0
M  V30 94 Ba 4.6600 -0.7262 2.6028 0
M  V30 95 Ga 5.3071 -1.1321 1.3417 0
M  V30 96 Ba 5.9401 -1.5200 0.0678 0
M  V30 97 Ba 7.2303 0.0343 -1.1615 0
M  V30 98 Ga 7.4462 1.3543 -0.5390 0
M  V30 99 Ba 7.5874 2.6854 0.0811 0
M  V30 END ATOM
M  V30 BEGIN BOND
M  V30 1 1 1 2
M  V30 2 1 1 3
M  V30 3 1 1 4
M  V30 4 1 1 5
M  V30 5 1 6 7
M  V30 6 1 6 8
M  V30 7 1 6 9
M  V30 8 1 6 10
M  V30 9 1 11 12
M  V30 10 1 11 13
M  V30 11 1 11 14
M  V30 12 1 11 15
M  V30 13 1 16 17
M  V30 14 1 16 18
M  V30 15 1 16 19
M  V30 16 1 16 20
M  V30 17 1 21 22
M  V30 18 1 21 23
M  V30 19 1 21 24
M  V30 20 1 21 25
M  V30 21 1 26 27
M  V30 22 1 26 28
M  V30 23 1 26 29
M  V30 24 1 26 30
M  V30 25 1 31 32
M  V30 26 1 31 33
M  V30 27 1 31 34
M  V30 28 1 31 35
M  V30 29 1 36 37
M  V30 30 1 36 38
M  V30 31 1 36 39
M  V30 32 1 36 40
M  V30 33 1 41 42
M  V30 34 1 41 43
M  V30 35 1 41 44
M  V30 36 1 41 45
M  V30 37 1 46 47
M  V30 38 1 47 48
M  V30 39 1 49 50
M  V30 40 1 50 51
M  V30 41 1 52 53
M  V30 42 1 53 54
M  V30 43 1 55 56
M  V30 44 1 56 57
M  V30 45 1 58 59
M  V30 46 1 59 60
M  V30 47 1 61 62
M  V30 48 1 62 63
M  V30 49 1 64 65
M  V30 50 1 65 66
M  V30 51 1 67 68
M  V30 52 1 68 69
M  V30 53 1 70 71
M  V30 54 1 71 72
M  V30 55 1 73 74
M  V30 56 1 74 75
M  V30 57 1 76 77
M  V30 58 1 77 78
M  V30 59 1 79 80
M  V30 60 1 80 81
M  V30 61 1 82 83
M  V30 62 1 83 84
M  V30 63 1 85 86
M  V30 64 1 86 87
M  V30 65 1 88 89
M  V30 66 1 89 90
M  V30 67 1 91 92
M  V30 68 1 92 93
M  V30 69 1 94 95
M  V30 70 1 95 96
M  V30 71 1 97 98
M  V30 72 1 98 99
M  V30 73 1 2 76
M  V30 74 1 3 67
M  V30 75 1 4 94
M  V30 76 1 5 61
M  V30 77 1 7 73
M  V30 78 1 8 85
M  V30 79 1 9 58
M  V30 80 1 10 82
M  V30 81 1 12 55
M  V30 82 1 13 70
M  V30 83 1 14 91
M  V30 84 1 15 52
M  V30 85 1 17 93
M  V30 86 1 18 79
M  V30 87 1 19 49
M  V30 88 1 20 88
M  V30 89 1 22 75
M  V30 90 1 23 72
M  V30 91 1 24 51
M  V30 92 1 25 46
M  V30 93 1 27 81
M  V30 94 1 28 97
M  V30 95 1 29 96
M  V30 96 1 30 90
M  V30 97 1 32 78
M  V30 98 1 33 99
M  V30 99 1 34 54
M  V30 100 1 35 57
M  V30 101 1 37 48
M  V30 102 1 38 64
M  V30 103 1 39 60
M  V30 104 1 40 63
M  V30 105 1 42 87
M  V30 106 1 43 69
M  V30 107 1 44 66
M  V30 108 1 45 84
M  V30 END BOND
M  V30 END CTAB
M  END

$$$$
