
     RDKit          3D

  0  0  0  0  0  0  0  0  0  0999 V3000
M  V30 BEGIN CTAB
M  V30 COUNTS 99 108 0 0 0
M  V30 BEGIN ATOM
M  V30 1 Pd -3.4195 -3.9856 -0.5457 0
M  V30 2 Pb -3.1820 -4.4008 -1.4247 0
M  V30 3 Pb -3.7199 -3.5972 0.3281 0
M  V30 4 Pb -4.2326 -3.5852 -0.9664 0
M  V30 5 Pb -2.5501 -4.3208 -0.1747 0
M  V30 6 Pd 1.1240 2.4912 7.7649 0
M  V30 7 Pb 1.7757 2.9333 7.1514 0
M  V30 8 Pb 0.4431 1.9573 8.2844 0
M  V30 9 Pb 1.8025 1.7715 7.8862 0
M  V30 10 Pb 0.4144 3.1699 7.5904 0
M  V30 11 Pd 3.2075 0.3980 -4.3628 0
M  V30 12 Pb 2.9114 -0.5148 -4.0759 0
M  V30 13 Pb 3.9936 0.3389 -3.7463 0
M  V30 14 Pb 3.4568 1.3097 -4.6824 0
M  V30 15 Pb 2.4436 0.4568 -4.9975 0
M  V30 16 Pd 0.4111 4.8194 -3.9799 0
M  V30 17 Pb 1.1859 4.5452 -4.5509 0
M  V30 18 Pb -0.2832 4.5132 -4.6641 0
M  V30 19 Pb 1.0809 5.0388 -3.2729 0
M  V30 20 Pb -0.3235 5.1290 -3.3887 0
M  V30 21 Pd 4.8212 1.2864 1.0582 0
M  V30 22 Pb 4.6002 1.7004 1.9443 0
M  V30 23 Pb 5.1099 0.9358 0.1652 0
M  V30 24 Pb 4.5669 2.1607 0.6446 0
M  V30 25 Pb 5.0748 0.3969 1.4518 0
M  V30 26 Pd -4.5240 1.6051 -5.0277 0
M  V30 27 Pb -3.8111 2.2254 -5.4154 0
M  V30 28 Pb -4.3645 0.9025 -5.7224 0
M  V30 29 Pb -5.1450 0.9630 -4.5806 0
M  V30 30 Pb -4.7194 2.2816 -4.3282 0
M  V30 31 Pd -1.2094 -2.5053 -5.3779 0
M  V30 32 Pb -1.6202 -3.3311 -4.9931 0
M  V30 33 Pb -2.0218 -2.2970 -5.9197 0
M  V30 34 Pb -0.8058 -1.6834 -5.7658 0
M  V30 35 Pb -0.3788 -2.6728 -4.8427 0
M  V30 36 Pd 2.9516 -3.3711 3.8644 0
M  V30 37 Pb 3.7342 -3.0275 3.3391 0
M  V30 38 Pb 2.1724 -3.6783 4.4087 0
M  V30 39 Pb 3.3095 -2.9103 4.6729 0
M  V30 40 Pb 2.5372 -3.8296 3.0772 0
M  V30 41 Pd -3.3860 -0.7739 6.6860 0
M  V30 42 Pb -2.8297 -0.4378 7.4607 0
M  V30 43 Pb -3.8919 -1.0938 5.8852 0
M  V30 44 Pb -2.8986 -1.6444 6.7037 0
M  V30 45 Pb -3.7927 0.1344 6.6251 0
M  V30 46 Ag 2.2839 3.1670 6.6536 0
M  V30 47 Fe 3.3684 2.6372 4.6063 0
M  V30 48 Ag 4.4590 2.1072 2.5622 0
M  V30 49 Ag 1.6019 5.1332 -2.7440 0
M  V30 50 Fe 3.0050 4.0294 -1.1789 0
M  V30 51 Ag 4.3601 2.8182 0.3485 0
M  V30 52 Ag -0.2262 3.5184 7.4452 0
M  V30 53 Fe -2.3536 2.6127 6.9678 0
M  V30 54 Ag -3.9049 0.8692 6.6116 0
M  V30 55 Ag -0.9399 5.2738 -3.0075 0
M  V30 56 Fe -3.0873 4.3137 -3.0652 0
M  V30 57 Ag -4.7391 2.8179 -3.8203 0
M  V30 58 Ag 2.3016 1.2168 7.8931 0
M  V30 59 Fe 3.0153 -0.6928 6.6836 0
M  V30 60 Ag 3.5169 -2.5431 5.2893 0
M  V30 61 Ag -4.7952 -3.2278 -1.3082 0
M  V30 62 Fe -5.3074 -1.4199 -2.7584 0
M  V30 63 Ag -5.5365 0.4389 -4.2164 0
M  V30 64 Ag -1.8621 -4.5546 0.0236 0
M  V30 65 Fe 0.1484 -4.3710 1.2799 0
M  V30 66 Ag 2.1574 -4.1904 2.5387 0
M  V30 67 Ag 1.5776 -3.8727 4.8199 0
M  V30 68 Fe -0.4704 -3.1643 5.7864 0
M  V30 69 Ag -2.4813 -2.2637 6.6670 0
M  V30 70 Ag -4.0350 -3.3060 0.9463 0
M  V30 71 Fe -4.0859 -2.3292 3.1122 0
M  V30 72 Ag -4.2398 -1.3510 5.2727 0
M  V30 73 Ba -3.0355 -4.7309 -2.0828 0
M  V30 74 Ga -2.4697 -4.3311 -3.3850 0
M  V30 75 Ba -1.9074 -3.9564 -4.6962 0
M  V30 76 Ba 5.3017 -0.2890 1.6722 0
M  V30 77 Ga 4.7795 -1.5018 2.3418 0
M  V30 78 Ba 4.3493 -2.7572 2.9985 0
M  V30 79 Ba -0.8010 4.2941 -5.1922 0
M  V30 80 Ga -2.0406 3.4686 -5.3770 0
M  V30 81 Ba -3.2767 2.6902 -5.7206 0
M  V30 82 Ba 1.8856 0.5193 -5.4871 0
M  V30 83 Ga 0.6812 -0.2655 -5.7818 0
M  V30 84 Ba -0.5180 -1.0636 -6.0613 0
M  V30 85 Ba -0.0735 1.5417 8.6552 0
M  V30 86 Ga -1.2434 0.6867 8.3147 0
M  V30 87 Ba -2.4231 -0.1820 8.0511 0
M  V30 88 Ba 2.6733 -1.1985 -3.8734 0
M  V30 89 Ga 1.4618 -1.9964 -4.1550 0
M  V30 90 Ba 0.2471 -2.7875 -4.4417 0
M  V30 91 Ba 3.5562 1.9898 -4.9784 0
M  V30 92 Ga 2.7060 3.1950 -4.9592 0
M  V30 93 Ba 1.8221 4.3749 -4.9125 0
M  V30 94 Ba -4.2981 0.3350 -6.2101 0
M  V30 95 Ga -3.4551 -0.8729 -6.2932 0
M  V30 96 Ba -2.5934 -2.0691 -6.3464 0
M  V30 97 Ba 4.5933 0.2620 -3.3011 0
M  V30 98 Ga 4.9453 0.4893 -1.8851 0
M  V30 99 Ba 5.3831 0.6843 -0.4885 0
M  V30 END ATOM
M  V30 BEGIN BOND
M  V30 1 1 1 2
M  V30 2 1 1 3
M  V30 3 1 1 4
M  V30 4 1 1 5
M  V30 5 1 6 7
M  V30 6 1 6 8
M  V30 7 1 6 9
M  V30 8 1 6 10
M  V30 9 1 11 12
M  V30 10 1 11 13
M  V30 11 1 11 14
M  V30 12 1 11 15
M  V30 13 1 16 17
M  V30 14 1 16 18
M  V30 15 1 16 19
M  V30 16 1 16 20
M  V30 17 1 21 22
M  V30 18 1 21 23
M  V30 19 1 21 24
M  V30 20 1 21 25
M  V30 21 1 26 27
M  V30 22 1 26 28
M  V30 23 1 26 29
M  V30 24 1 26 30
M  V30 25 1 31 32
M  V30 26 1 31 33
M  V30 27 1 31 34
M  V30 28 1 31 35
M  V30 29 1 36 37
M  V30 30 1 36 38
M  V30 31 1 36 39
M  V30 32 1 36 40
M  V30 33 1 41 42
M  V30 34 1 41 43
M  V30 35 1 41 44
M  V30 36 1 41 45
M  V30 37 1 46 47
M  V30 38 1 47 48
M  V30 39 1 49 50
M  V30 40 1 50 51
M  V30 41 1 52 53
M  V30 42 1 53 54
M  V30 43 1 55 56
M  V30 44 1 56 57
M  V30 45 1 58 59
M  V30 46 1 59 60
M  V30 47 1 61 62
M  V30 48 1 62 63
M  V30 49 1 64 65
M  V30 50 1 65 66
M  V30 51 1 67 68
M  V30 52 1 68 69
M  V30 53 1 70 71
M  V30 54 1 71 72
M  V30 55 1 73 74
M  V30 56 1 74 75
M  V30 57 1 76 77
M  V30 58 1 77 78
M  V30 59 1 79 80
M  V30 60 1 80 81
M  V30 61 1 82 83
M  V30 62 1 83 84
M  V30 63 1 85 86
M  V30 64 1 86 87
M  V30 65 1 88 89
M  V30 66 1 89 90
M  V30 67 1 91 92
M  V30 68 1 92 93
M  V30 69 1 94 95
M  V30 70 1 95 96
M  V30 71 1 97 98
M  V30 72 1 98 99
M  V30 73 1 2 73
M  V30 74 1 3 70
M  V30 75 1 4 61
M  V30 76 1 5 64
M  V30 77 1 7 46
M  V30 78 1 8 85
M  V30 79 1 9 58
M  V30 80 1 10 52
M  V30 81 1 12 88
M  V30 82 1 13 97
M  V30 83 1 14 91
M  V30 84 1 15 82
M  V30 85 1 17 93
M  V30 86 1 18 79
M  V30 87 1 19 49
M  V30 88 1 20 55
M  V30 89 1 22 48
M  V30 90 1 23 99
M  V30 91 1 24 51
M  V30 92 1 25 76
M  V30 93 1 27 81
M  V30 94 1 28 94
M  V30 95 1 29 63
M  V30 96 1 30 57
M  V30 97 1 32 75
M  V30 98 1 33 96
M  V30 99 1 34 84
M  V30 100 1 35 90
M  V30 101 1 37 78
M  V30 102 1 38 67
M  V30 103 1 39 60
M  V30 104 1 40 66
M  V30 105 1 42 87
M  V30 106 1 43 72
M  V30 107 1 44 69
M  V30 108 1 45 54
M  V30 END BOND
M  V30 END CTAB
M  END

$$$$
