
     RDKit          3D

  0  0  0  0  0  0  0  0  0  0999 V3000
M  V30 BEGIN CTAB
M  V30 COUNTS 99 108 0 0 0
M  V30 BEGIN ATOM
M  V30 1 Pd 2.1559 -4.7310 -2.8335 0
M  V30 2 Pb 2.6323 -5.0008 -1.9966 0
M  V30 3 Pb 3.0395 -4.5766 -3.2856 0
M  V30 4 Pb 1.2711 -4.9937 -2.4413 0
M  V30 5 Pb 1.6523 -4.3479 -3.6058 0
M  V30 6 Pd 3.4993 4.1859 -1.8984 0
M  V30 7 Pb 2.9299 3.9933 -1.1033 0
M  V30 8 Pb 4.0802 4.3205 -2.6932 0
M  V30 9 Pb 2.7604 4.6837 -2.3525 0
M  V30 10 Pb 4.2078 3.5694 -1.5434 0
M  V30 11 Pd -0.4420 2.8111 5.0762 0
M  V30 12 Pb 0.4960 2.9263 4.7711 0
M  V30 13 Pb -0.6763 3.7066 4.6955 0
M  V30 14 Pb -1.3889 2.7271 5.3927 0
M  V30 15 Pb -0.2007 1.8816 5.4222 0
M  V30 16 Pd -7.4158 0.6339 3.3707 0
M  V30 17 Pb -7.0053 1.1676 4.1082 0
M  V30 18 Pb -7.3965 -0.1771 3.9489 0
M  V30 19 Pb -7.3556 1.4268 2.7659 0
M  V30 20 Pb -7.6572 0.0261 2.6121 0
M  V30 21 Pd -1.9111 4.1388 0.2279 0
M  V30 22 Pb -0.9419 3.9167 0.3199 0
M  V30 23 Pb -1.8100 4.7140 1.0402 0
M  V30 24 Pb -2.8977 4.2936 0.2261 0
M  V30 25 Pb -2.0369 3.5339 -0.5622 0
M  V30 26 Pd -4.1946 -5.3997 1.9396 0
M  V30 27 Pb -4.7073 -5.1496 2.7569 0
M  V30 28 Pb -3.4338 -5.6960 2.5124 0
M  V30 29 Pb -3.6683 -5.6089 1.1144 0
M  V30 30 Pb -4.9371 -4.9810 1.4124 0
M  V30 31 Pd 2.2926 -2.5331 4.2729 0
M  V30 32 Pb 2.7824 -3.1487 3.6540 0
M  V30 33 Pb 1.6465 -3.2777 4.4342 0
M  V30 34 Pb 1.7515 -1.8930 4.8559 0
M  V30 35 Pb 2.9401 -1.8037 4.0861 0
M  V30 36 Pd -0.0870 2.0315 -4.9605 0
M  V30 37 Pb -0.8004 2.0546 -4.2575 0
M  V30 38 Pb 0.6111 1.9267 -5.6710 0
M  V30 39 Pb 0.1263 2.9934 -4.7676 0
M  V30 40 Pb -0.2654 1.0635 -5.1351 0
M  V30 41 Pd 6.1048 -1.1157 -5.2035 0
M  V30 42 Pb 6.3126 -0.1592 -5.3799 0
M  V30 43 Pb 5.8760 -2.0734 -5.0183 0
M  V30 44 Pb 5.5667 -1.0710 -6.0406 0
M  V30 45 Pb 6.4579 -0.9746 -4.2789 0
M  V30 46 Ag 2.9749 -5.1227 -1.3403 0
M  V30 47 Fe 3.1040 -4.4353 0.9302 0
M  V30 48 Ag 3.0956 -3.6229 3.1629 0
M  V30 49 Ag -7.2333 2.0152 2.3191 0
M  V30 50 Fe -5.5331 3.2677 1.2360 0
M  V30 51 Ag -3.6437 4.3326 0.2723 0
M  V30 52 Ag -7.3142 -0.8272 4.3045 0
M  V30 53 Fe -6.2768 -2.9354 4.0021 0
M  V30 54 Ag -5.1109 -4.8835 3.3251 0
M  V30 55 Ag 4.7243 3.0449 -1.3786 0
M  V30 56 Fe 5.7891 1.1291 -2.3037 0
M  V30 57 Ag 6.5933 -0.7009 -3.5929 0
M  V30 58 Ag 4.5422 4.2909 -3.2733 0
M  V30 59 Fe 5.6050 2.6022 -4.5413 0
M  V30 60 Ag 6.3927 0.5747 -5.4682 0
M  V30 61 Ag 1.2019 2.8877 4.5528 0
M  V30 62 Fe 2.6552 1.0813 4.1377 0
M  V30 63 Ag 3.3109 -1.1745 3.9702 0
M  V30 64 Ag -7.7222 -0.5073 2.0859 0
M  V30 65 Fe -6.7224 -2.5687 1.4485 0
M  V30 66 Ag -5.4978 -4.5794 1.1111 0
M  V30 67 Ag -2.1078 2.7143 5.6134 0
M  V30 68 Fe -4.3754 2.1465 5.1880 0
M  V30 69 Ag -6.5969 1.5143 4.6317 0
M  V30 70 Ag 0.5952 -5.2449 -2.2248 0
M  V30 71 Fe -1.3067 -5.4563 -0.8145 0
M  V30 72 Ag -3.2647 -5.7593 0.4992 0
M  V30 73 Ag 1.2273 -3.9947 -4.1108 0
M  V30 74 Fe 0.4032 -1.8695 -4.7748 0
M  V30 75 Ag -0.3181 0.3323 -5.2931 0
M  V30 76 Ag 1.0970 1.6880 -6.1941 0
M  V30 77 Fe 3.0773 0.4315 -6.5772 0
M  V30 78 Ag 5.0904 -0.8301 -6.5642 0
M  V30 79 Ag -2.8548 -5.8250 2.9672 0
M  V30 80 Fe -0.8227 -4.9144 3.7868 0
M  V30 81 Ag 1.1799 -3.8600 4.5001 0
M  V30 82 Ba 2.5359 3.8050 -0.4975 0
M  V30 83 Ga 1.1310 3.8012 -0.0566 0
M  V30 84 Ba -0.2336 3.7466 0.4936 0
M  V30 85 Ba -2.2152 3.0709 -1.1285 0
M  V30 86 Ga -1.7215 2.5885 -2.4352 0
M  V30 87 Ba -1.3536 2.0218 -3.7496 0
M  V30 88 Ba -0.0294 1.1911 5.7171 0
M  V30 89 Ga 0.6809 -0.0978 5.4325 0
M  V30 90 Ba 1.3356 -1.4417 5.3214 0
M  V30 91 Ba 2.2092 4.9926 -2.7576 0
M  V30 92 Ga 1.2254 4.3781 -3.6746 0
M  V30 93 Ba 0.2657 3.7105 -4.5800 0
M  V30 94 Ba 3.7074 -4.5546 -3.6360 0
M  V30 95 Ga 4.6814 -3.6209 -4.2416 0
M  V30 96 Ba 5.7333 -2.7980 -4.8771 0
M  V30 97 Ba -0.8651 4.3657 4.3892 0
M  V30 98 Ga -1.2927 4.7664 3.0344 0
M  V30 99 Ba -1.7161 5.1190 1.6651 0
M  V30 END ATOM
M  V30 BEGIN BOND
M  V30 1 1 1 2
M  V30 2 1 1 3
M  V30 3 1 1 4
M  V30 4 1 1 5
M  V30 5 1 6 7
M  V30 6 1 6 8
M  V30 7 1 6 9
M  V30 8 1 6 10
M  V30 9 1 11 12
M  V30 10 1 11 13
M  V30 11 1 11 14
M  V30 12 1 11 15
M  V30 13 1 16 17
M  V30 14 1 16 18
M  V30 15 1 16 19
M  V30 16 1 16 20
M  V30 17 1 21 22
M  V30 18 1 21 23
M  V30 19 1 21 24
M  V30 20 1 21 25
M  V30 21 1 26 27
M  V30 22 1 26 28
M  V30 23 1 26 29
M  V30 24 1 26 30
M  V30 25 1 31 32
M  V30 26 1 31 33
M  V30 27 1 31 34
M  V30 28 1 31 35
M  V30 29 1 36 37
M  V30 30 1 36 38
M  V30 31 1 36 39
M  V30 32 1 36 40
M  V30 33 1 41 42
M  V30 34 1 41 43
M  V30 35 1 41 44
M  V30 36 1 41 45
M  V30 37 1 46 47
M  V30 38 1 47 48
M  V30 39 1 49 50
M  V30 40 1 50 51
M  V30 41 1 52 53
M  V30 42 1 53 54
M  V30 43 1 55 56
M  V30 44 1 56 57
M  V30 45 1 58 59
M  V30 46 1 59 60
M  V30 47 1 61 62
M  V30 48 1 62 63
M  V30 49 1 64 65
M  V30 50 1 65 66
M  V30 51 1 67 68
M  V30 52 1 68 69
M  V30 53 1 70 71
M  V30 54 1 71 72
M  V30 55 1 73 74
M  V30 56 1 74 75
M  V30 57 1 76 77
M  V30 58 1 77 78
M  V30 59 1 79 80
M  V30 60 1 80 81
M  V30 61 1 82 83
M  V30 62 1 83 84
M  V30 63 1 85 86
M  V30 64 1 86 87
M  V30 65 1 88 89
M  V30 66 1 89 90
M  V30 67 1 91 92
M  V30 68 1 92 93
M  V30 69 1 94 95
M  V30 70 1 95 96
M  V30 71 1 97 98
M  V30 72 1 98 99
M  V30 73 1 2 46
M  V30 74 1 3 94
M  V30 75 1 4 70
M  V30 76 1 5 73
M  V30 77 1 7 82
M  V30 78 1 8 58
M  V30 79 1 9 91
M  V30 80 1 10 55
M  V30 81 1 12 61
M  V30 82 1 13 97
M  V30 83 1 14 67
M  V30 84 1 15 88
M  V30 85 1 17 69
M  V30 86 1 18 52
M  V30 87 1 19 49
M  V30 88 1 20 64
M  V30 89 1 22 84
M  V30 90 1 23 99
M  V30 91 1 24 51
M  V30 92 1 25 85
M  V30 93 1 27 54
M  V30 94 1 28 79
M  V30 95 1 29 72
M  V30 96 1 30 66
M  V30 97 1 32 48
M  V30 98 1 33 81
M  V30 99 1 34 90
M  V30 100 1 35 63
M  V30 101 1 37 87
M  V30 102 1 38 76
M  V30 103 1 39 93
M  V30 104 1 40 75
M  V30 105 1 42 60
M  V30 106 1 43 96
M  V30 107 1 44 78
M  V30 108 1 45 57
M  V30 END BOND
M  V30 END CTAB
M  END

$$$$
