
     RDKit          3D

  0  0  0  0  0  0  0  0  0  0999 V3000
M  V30 BEGIN CTAB
M  V30 COUNTS 99 108 0 0 0
M  V30 BEGIN ATOM
M  V30 1 Pd -5.7108 -2.6572 -4.6557 0
M  V30 2 Pb -6.2916 -2.0292 -4.1406 0
M  V30 3 Pb -6.0883 -2.3416 -5.5264 0
M  V30 4 Pb -5.0625 -3.1933 -5.1958 0
M  V30 5 Pb -5.2306 -2.8727 -3.8020 0
M  V30 6 Pd -1.8025 0.1516 -9.3172 0
M  V30 7 Pb -0.8927 0.2495 -8.9189 0
M  V30 8 Pb -1.7628 -0.8408 -9.2159 0
M  V30 9 Pb -2.7742 0.0438 -9.5227 0
M  V30 10 Pb -1.9002 1.1415 -9.2213 0
M  V30 11 Pd -0.1374 -4.2375 3.1418 0
M  V30 12 Pb -0.5976 -3.7592 3.8899 0
M  V30 13 Pb 0.3436 -4.6199 2.3507 0
M  V30 14 Pb 0.6282 -4.4219 3.7542 0
M  V30 15 Pb -0.9275 -4.0287 2.5739 0
M  V30 16 Pd 4.5987 -0.5108 7.5512 0
M  V30 17 Pb 4.9400 0.4219 7.6364 0
M  V30 18 Pb 3.6916 -0.2184 7.8636 0
M  V30 19 Pb 5.4673 -0.7342 7.1048 0
M  V30 20 Pb 4.2749 -1.4385 7.3769 0
M  V30 21 Pd -3.7560 1.7102 0.3690 0
M  V30 22 Pb -2.8084 1.6476 0.6888 0
M  V30 23 Pb -3.6434 2.6710 0.1132 0
M  V30 24 Pb -3.8379 0.7308 0.5302 0
M  V30 25 Pb -4.6724 1.6849 -0.0244 0
M  V30 26 Pd -0.6926 3.4908 -3.3042 0
M  V30 27 Pb -0.0602 2.9494 -3.8589 0
M  V30 28 Pb -0.3813 3.0686 -2.4536 0
M  V30 29 Pb -1.0330 3.8640 -4.1688 0
M  V30 30 Pb -1.3428 4.0208 -2.7578 0
M  V30 31 Pd 0.1363 0.9189 4.7867 0
M  V30 32 Pb -0.1225 0.9098 3.8175 0
M  V30 33 Pb 0.6659 1.7302 4.5324 0
M  V30 34 Pb -0.4001 0.0994 5.0065 0
M  V30 35 Pb 0.4427 0.9309 5.7454 0
M  V30 36 Pd 0.8619 -1.5216 -0.8091 0
M  V30 37 Pb 1.8183 -1.2263 -0.8679 0
M  V30 38 Pb 1.1284 -2.4858 -0.7706 0
M  V30 39 Pb -0.0960 -1.8236 -0.7969 0
M  V30 40 Pb 0.6134 -0.5551 -0.7235 0
M  V30 41 Pd 6.5656 2.6557 2.1287 0
M  V30 42 Pb 7.2167 1.9533 2.4105 0
M  V30 43 Pb 6.7270 3.1011 3.0055 0
M  V30 44 Pb 5.7606 3.2361 2.0401 0
M  V30 45 Pb 6.3146 2.1267 1.3171 0
M  V30 46 Ag 1.1651 -4.5090 4.2670 0
M  V30 47 Fe 2.6415 -3.3953 5.7528 0
M  V30 48 Ag 4.0518 -2.1231 7.1743 0
M  V30 49 Ag 2.5218 -0.9679 -0.9376 0
M  V30 50 Fe 4.3237 0.3504 -0.1209 0
M  V30 51 Ag 6.0856 1.6851 0.7542 0
M  V30 52 Ag -1.9549 1.8545 -8.9962 0
M  V30 53 Fe -1.6569 3.1268 -7.0124 0
M  V30 54 Ag -1.2561 4.0520 -4.8612 0
M  V30 55 Ag -6.2373 -2.0709 -6.2096 0
M  V30 56 Fe -5.0776 -1.0593 -8.0174 0
M  V30 57 Ag -3.5088 -0.1016 -9.5197 0
M  V30 58 Ag 1.0367 2.3086 4.2258 0
M  V30 59 Fe 3.0118 3.0809 3.1553 0
M  V30 60 Ag 5.1042 3.5774 2.1467 0
M  V30 61 Ag 6.0828 -0.8082 6.6795 0
M  V30 62 Fe 7.0474 0.1411 4.7271 0
M  V30 63 Ag 7.5618 1.4012 2.7804 0
M  V30 64 Ag -4.5599 -3.4822 -5.6706 0
M  V30 65 Fe -3.1021 -2.7531 -7.3955 0
M  V30 66 Ag -1.8361 -1.5549 -9.0056 0
M  V30 67 Ag -4.8449 -2.9593 -3.1607 0
M  V30 68 Fe -2.8293 -2.5429 -1.9659 0
M  V30 69 Ag -0.7969 -2.1033 -0.8087 0
M  V30 70 Ag -0.2910 0.3702 -8.4912 0
M  V30 71 Fe 0.2301 1.4183 -6.4261 0
M  V30 72 Ag 0.3544 2.5615 -4.3492 0
M  V30 73 Ag -1.5383 -3.8183 2.2027 0
M  V30 74 Fe -2.7608 -1.9663 1.3719 0
M  V30 75 Ag -3.8572 -0.0113 0.6031 0
M  V30 76 Ag -6.6345 -1.5088 -3.7266 0
M  V30 77 Fe -6.1788 0.0952 -2.0399 0
M  V30 78 Ag -5.3185 1.5475 -0.3738 0
M  V30 79 Ag 5.2416 1.1004 7.5667 0
M  V30 80 Fe 6.0830 2.4478 5.8105 0
M  V30 81 Ag 6.7537 3.3253 3.7158 0
M  V30 82 Ba -3.5433 3.3729 -0.1338 0
M  V30 83 Ga -2.6966 3.9177 -1.2137 0
M  V30 84 Ba -1.8224 4.3845 -2.3083 0
M  V30 85 Ba -0.9430 -3.3549 4.4193 0
M  V30 86 Ga -0.8666 -1.9328 4.8149 0
M  V30 87 Ba -0.7925 -0.5108 5.2112 0
M  V30 88 Ba -0.1962 2.7697 -1.7917 0
M  V30 89 Ga 0.1439 1.4436 -1.2399 0
M  V30 90 Ba 0.4922 0.1722 -0.5763 0
M  V30 91 Ba -2.0874 1.5193 0.8609 0
M  V30 92 Ga -1.2125 1.2530 2.0229 0
M  V30 93 Ba -0.2087 0.9717 3.0715 0
M  V30 94 Ba 3.0095 0.0448 8.0456 0
M  V30 95 Ga 1.8311 0.4719 7.2544 0
M  V30 96 Ba 0.6476 0.9028 6.4732 0
M  V30 97 Ba 0.6964 -4.8392 1.7241 0
M  V30 98 Ga 1.0249 -4.0770 0.5017 0
M  V30 99 Ba 1.2961 -3.2104 -0.6639 0
M  V30 END ATOM
M  V30 BEGIN BOND
M  V30 1 1 1 2
M  V30 2 1 1 3
M  V30 3 1 1 4
M  V30 4 1 1 5
M  V30 5 1 6 7
M  V30 6 1 6 8
M  V30 7 1 6 9
M  V30 8 1 6 10
M  V30 9 1 11 12
M  V30 10 1 11 13
M  V30 11 1 11 14
M  V30 12 1 11 15
M  V30 13 1 16 17
M  V30 14 1 16 18
M  V30 15 1 16 19
M  V30 16 1 16 20
M  V30 17 1 21 22
M  V30 18 1 21 23
M  V30 19 1 21 24
M  V30 20 1 21 25
M  V30 21 1 26 27
M  V30 22 1 26 28
M  V30 23 1 26 29
M  V30 24 1 26 30
M  V30 25 1 31 32
M  V30 26 1 31 33
M  V30 27 1 31 34
M  V30 28 1 31 35
M  V30 29 1 36 37
M  V30 30 1 36 38
M  V30 31 1 36 39
M  V30 32 1 36 40
M  V30 33 1 41 42
M  V30 34 1 41 43
M  V30 35 1 41 44
M  V30 36 1 41 45
M  V30 37 1 46 47
M  V30 38 1 47 48
M  V30 39 1 49 50
M  V30 40 1 50 51
M  V30 41 1 52 53
M  V30 42 1 53 54
M  V30 43 1 55 56
M  V30 44 1 56 57
M  V30 45 1 58 59
M  V30 46 1 59 60
M  V30 47 1 61 62
M  V30 48 1 62 63
M  V30 49 1 64 65
M  V30 50 1 65 66
M  V30 51 1 67 68
M  V30 52 1 68 69
M  V30 53 1 70 71
M  V30 54 1 71 72
M  V30 55 1 73 74
M  V30 56 1 74 75
M  V30 57 1 76 77
M  V30 58 1 77 78
M  V30 59 1 79 80
M  V30 60 1 80 81
M  V30 61 1 82 83
M  V30 62 1 83 84
M  V30 63 1 85 86
M  V30 64 1 86 87
M  V30 65 1 88 89
M  V30 66 1 89 90
M  V30 67 1 91 92
M  V30 68 1 92 93
M  V30 69 1 94 95
M  V30 70 1 95 96
M  V30 71 1 97 98
M  V30 72 1 98 99
M  V30 73 1 2 76
M  V30 74 1 3 55
M  V30 75 1 4 64
M  V30 76 1 5 67
M  V30 77 1 7 70
M  V30 78 1 8 66
M  V30 79 1 9 57
M  V30 80 1 10 52
M  V30 81 1 12 85
M  V30 82 1 13 97
M  V30 83 1 14 46
M  V30 84 1 15 73
M  V30 85 1 17 79
M  V30 86 1 18 94
M  V30 87 1 19 61
M  V30 88 1 20 48
M  V30 89 1 22 91
M  V30 90 1 23 82
M  V30 91 1 24 75
M  V30 92 1 25 78
M  V30 93 1 27 72
M  V30 94 1 28 88
M  V30 95 1 29 54
M  V30 96 1 30 84
M  V30 97 1 32 93
M  V30 98 1 33 58
M  V30 99 1 34 87
M  V30 100 1 35 96
M  V30 101 1 37 49
M  V30 102 1 38 99
M  V30 103 1 39 69
M  V30 104 1 40 90
M  V30 105 1 42 63
M  V30 106 1 43 81
M  V30 107 1 44 60
M  V30 108 1 45 51
M  V30 END BOND
M  V30 END CTAB
M  END

$$$$
