
     RDKit          3D

  0  0  0  0  0  0  0  0  0  0999 V3000
M  V30 BEGIN CTAB
M  V30 COUNTS 99 108 0 0 0
M  V30 BEGIN ATOM
M  V30 1 Pd 6.3037 0.9946 -3.2796 0
M  V30 2 Pb 6.4363 1.4467 -2.3975 0
M  V30 3 Pb 6.1880 0.0943 -2.8222 0
M  V30 4 Pb 6.1282 0.5683 -4.1592 0
M  V30 5 Pb 6.2994 1.8920 -3.7151 0
M  V30 6 Pd -3.0877 -4.5629 -1.7536 0
M  V30 7 Pb -3.9339 -4.4938 -1.2294 0
M  V30 8 Pb -2.7359 -5.2526 -1.1246 0
M  V30 9 Pb -2.2613 -4.7006 -2.2989 0
M  V30 10 Pb -3.4508 -3.8710 -2.3795 0
M  V30 11 Pd -0.8089 1.1744 4.5871 0
M  V30 12 Pb -1.2396 2.0603 4.4728 0
M  V30 13 Pb -0.3640 0.2894 4.7431 0
M  V30 14 Pb 0.0964 1.5738 4.3452 0
M  V30 15 Pb -1.7046 0.8196 4.8518 0
M  V30 16 Pd 2.8720 5.3328 1.9928 0
M  V30 17 Pb 2.0102 5.7381 2.2692 0
M  V30 18 Pb 3.7301 4.9122 1.6961 0
M  V30 19 Pb 2.6801 4.5074 2.5578 0
M  V30 20 Pb 3.0304 6.1339 1.4162 0
M  V30 21 Pd -3.8977 1.0162 -1.9541 0
M  V30 22 Pb -3.2000 1.2149 -2.6411 0
M  V30 23 Pb -4.6160 0.8717 -1.2690 0
M  V30 24 Pb -3.6554 1.8915 -1.5306 0
M  V30 25 Pb -4.1202 0.1630 -2.4318 0
M  V30 26 Pd -5.1415 -1.9284 2.6916 0
M  V30 27 Pb -5.5278 -1.1836 2.1455 0
M  V30 28 Pb -4.7479 -2.6742 3.2259 0
M  V30 29 Pb -5.4387 -2.5748 1.9926 0
M  V30 30 Pb -4.8825 -1.3080 3.4304 0
M  V30 31 Pd 2.7010 -3.6779 -2.2826 0
M  V30 32 Pb 2.6322 -3.8706 -1.2993 0
M  V30 33 Pb 3.5742 -3.1853 -2.1025 0
M  V30 34 Pb 2.8252 -3.5225 -3.2556 0
M  V30 35 Pb 1.8587 -4.1633 -2.5226 0
M  V30 36 Pd 1.3682 6.0587 -2.8490 0
M  V30 37 Pb 1.7861 6.7363 -2.2452 0
M  V30 38 Pb 2.2146 6.0234 -3.3767 0
M  V30 39 Pb 0.5416 6.0067 -2.2863 0
M  V30 40 Pb 0.9783 5.3250 -3.4036 0
M  V30 41 Pd -0.2666 -4.3231 2.8352 0
M  V30 42 Pb 0.0635 -3.6267 3.4760 0
M  V30 43 Pb -0.5922 -5.0505 2.2335 0
M  V30 44 Pb 0.6080 -4.2986 2.3462 0
M  V30 45 Pb -1.1263 -4.3870 3.3413 0
M  V30 46 Ag 5.8875 0.1737 -4.7362 0
M  V30 47 Fe 4.4248 -1.6689 -4.8267 0
M  V30 48 Ag 3.0137 -3.3358 -3.9464 0
M  V30 49 Ag 6.1948 2.5739 -4.0018 0
M  V30 50 Fe 4.6294 4.3551 -3.9801 0
M  V30 51 Ag 2.8674 5.9219 -3.7269 0
M  V30 52 Ag -2.6785 1.4356 -3.1312 0
M  V30 53 Fe -0.9814 3.0415 -3.5497 0
M  V30 54 Ag 0.6628 4.7416 -3.7513 0
M  V30 55 Ag -3.4314 2.5633 -1.2768 0
M  V30 56 Fe -1.8052 4.2832 -1.4999 0
M  V30 57 Ag -0.0793 5.8724 -1.8845 0
M  V30 58 Ag 6.5061 1.8201 -1.7508 0
M  V30 59 Fe 5.4683 3.1956 -0.1157 0
M  V30 60 Ag 4.3592 4.5679 1.4745 0
M  V30 61 Ag -1.4574 2.7578 4.3643 0
M  V30 62 Fe -0.4007 4.6636 3.4755 0
M  V30 63 Ag 1.3310 5.9196 2.4949 0
M  V30 64 Ba -4.5845 -4.4617 -0.8619 0
M  V30 65 Ga -5.1174 -3.7539 0.3133 0
M  V30 66 Ba -5.6843 -3.0635 1.4830 0
M  V30 67 Ba 6.1032 -0.5727 -2.4548 0
M  V30 68 Ga 5.1216 -1.6835 -2.2552 0
M  V30 69 Ba 4.2558 -2.8649 -1.9527 0
M  V30 70 Ba -5.1669 0.8198 -0.7582 0
M  V30 71 Ga -5.4716 0.0702 0.4783 0
M  V30 72 Ba -5.8338 -0.6466 1.7188 0
M  V30 73 Ba 0.0116 -0.3457 4.8915 0
M  V30 74 Ga 0.1283 -1.7337 4.3970 0
M  V30 75 Ba 0.3253 -3.1396 3.9858 0
M  V30 76 Ba 0.8073 1.8319 4.2134 0
M  V30 77 Ga 1.6165 2.9037 3.5553 0
M  V30 78 Ba 2.6013 3.8696 2.9774 0
M  V30 79 Ba -4.4389 -3.2189 3.6355 0
M  V30 80 Ga -3.1038 -3.8414 3.6770 0
M  V30 81 Ba -1.7690 -4.4644 3.7196 0
M  V30 82 Ba -2.3953 0.6211 5.0639 0
M  V30 83 Ga -3.5301 -0.1440 4.5165 0
M  V30 84 Ba -4.7013 -0.8936 4.0275 0
M  V30 85 Ba -2.4473 -5.7653 -0.6634 0
M  V30 86 Ga -1.6499 -5.6927 0.5721 0
M  V30 87 Ba -0.8526 -5.6078 1.8068 0
M  V30 88 Ba 3.0970 6.7351 0.9731 0
M  V30 89 Ga 2.6327 7.0071 -0.3995 0
M  V30 90 Ba 2.1380 7.2011 -1.7746 0
M  V30 91 Ba -1.6545 -4.8904 -2.6965 0
M  V30 92 Ga -0.1967 -4.6576 -2.7005 0
M  V30 93 Ba 1.2677 -4.5186 -2.8224 0
M  V30 94 Ba -3.7683 -3.3616 -2.8314 0
M  V30 95 Ga -4.0006 -1.9022 -2.8096 0
M  V30 96 Ba -4.2652 -0.4487 -2.8462 0
M  V30 97 Ba 2.6908 -4.0080 -0.5600 0
M  V30 98 Ga 1.9118 -4.1428 0.6898 0
M  V30 99 Ba 1.2854 -4.3073 2.0194 0
M  V30 END ATOM
M  V30 BEGIN BOND
M  V30 1 1 1 2
M  V30 2 1 1 3
M  V30 3 1 1 4
M  V30 4 1 1 5
M  V30 5 1 6 7
M  V30 6 1 6 8
M  V30 7 1 6 9
M  V30 8 1 6 10
M  V30 9 1 11 12
M  V30 10 1 11 13
M  V30 11 1 11 14
M  V30 12 1 11 15
M  V30 13 1 16 17
M  V30 14 1 16 18
M  V30 15 1 16 19
M  V30 16 1 16 20
M  V30 17 1 21 22
M  V30 18 1 21 23
M  V30 19 1 21 24
M  V30 20 1 21 25
M  V30 21 1 26 27
M  V30 22 1 26 28
M  V30 23 1 26 29
M  V30 24 1 26 30
M  V30 25 1 31 32
M  V30 26 1 31 33
M  V30 27 1 31 34
M  V30 28 1 31 35
M  V30 29 1 36 37
M  V30 30 1 36 38
M  V30 31 1 36 39
M  V30 32 1 36 40
M  V30 33 1 41 42
M  V30 34 1 41 43
M  V30 35 1 41 44
M  V30 36 1 41 45
M  V30 37 1 46 47
M  V30 38 1 47 48
M  V30 39 1 49 50
M  V30 40 1 50 51
M  V30 41 1 52 53
M  V30 42 1 53 54
M  V30 43 1 55 56
M  V30 44 1 56 57
M  V30 45 1 58 59
M  V30 46 1 59 60
M  V30 47 1 61 62
M  V30 48 1 62 63
M  V30 49 1 64 65
M  V30 50 1 65 66
M  V30 51 1 67 68
M  V30 52 1 68 69
M  V30 53 1 70 71
M  V30 54 1 71 72
M  V30 55 1 73 74
M  V30 56 1 74 75
M  V30 57 1 76 77
M  V30 58 1 77 78
M  V30 59 1 79 80
M  V30 60 1 80 81
M  V30 61 1 82 83
M  V30 62 1 83 84
M  V30 63 1 85 86
M  V30 64 1 86 87
M  V30 65 1 88 89
M  V30 66 1 89 90
M  V30 67 1 91 92
M  V30 68 1 92 93
M  V30 69 1 94 95
M  V30 70 1 95 96
M  V30 71 1 97 98
M  V30 72 1 98 99
M  V30 73 1 2 58
M  V30 74 1 3 67
M  V30 75 1 4 46
M  V30 76 1 5 49
M  V30 77 1 7 64
M  V30 78 1 8 85
M  V30 79 1 9 91
M  V30 80 1 10 94
M  V30 81 1 12 61
M  V30 82 1 13 73
M  V30 83 1 14 76
M  V30 84 1 15 82
M  V30 85 1 17 63
M  V30 86 1 18 60
M  V30 87 1 19 78
M  V30 88 1 20 88
M  V30 89 1 22 52
M  V30 90 1 23 70
M  V30 91 1 24 55
M  V30 92 1 25 96
M  V30 93 1 27 72
M  V30 94 1 28 79
M  V30 95 1 29 66
M  V30 96 1 30 84
M  V30 97 1 32 97
M  V30 98 1 33 69
M  V30 99 1 34 48
M  V30 100 1 35 93
M  V30 101 1 37 90
M  V30 102 1 38 51
M  V30 103 1 39 57
M  V30 104 1 40 54
M  V30 105 1 42 75
M  V30 106 1 43 87
M  V30 107 1 44 99
M  V30 108 1 45 81
M  V30 END BOND
M  V30 END CTAB
M  END

$$$$
