
     RDKit          3D

  0  0  0  0  0  0  0  0  0  0999 V3000
M  V30 BEGIN CTAB
M  V30 COUNTS 99 108 0 0 0
M  V30 BEGIN ATOM
M  V30 1 Pd 0.2517 3.7911 0.0873 0
M  V30 2 Pb 1.1237 3.9241 -0.3820 0
M  V30 3 Pb -0.6548 3.7078 0.5106 0
M  V30 4 Pb -0.1033 4.5985 -0.3792 0
M  V30 5 Pb 0.5550 2.8672 0.3510 0
M  V30 6 Pd -0.3887 0.3497 7.7270 0
M  V30 7 Pb -0.4328 -0.6232 7.5112 0
M  V30 8 Pb -0.4033 1.3572 7.8387 0
M  V30 9 Pb 0.6073 0.3309 7.5953 0
M  V30 10 Pb -1.3758 0.3540 7.8648 0
M  V30 11 Pd 1.9137 -4.4061 -3.5596 0
M  V30 12 Pb 2.7951 -4.2756 -3.1198 0
M  V30 13 Pb 1.6735 -5.0391 -2.8236 0
M  V30 14 Pb 1.0375 -4.5596 -4.0244 0
M  V30 15 Pb 2.2103 -3.7886 -4.3122 0
M  V30 16 Pd -3.6477 -2.8589 -3.8103 0
M  V30 17 Pb -2.9364 -3.4278 -4.2314 0
M  V30 18 Pb -4.3767 -2.3169 -3.4064 0
M  V30 19 Pb -3.6580 -3.4554 -3.0077 0
M  V30 20 Pb -3.6336 -2.2153 -4.5991 0
M  V30 21 Pd 0.4549 -4.8574 2.0716 0
M  V30 22 Pb 0.1388 -4.5536 2.9700 0
M  V30 23 Pb 0.7658 -5.2781 1.2167 0
M  V30 24 Pb -0.4748 -5.0364 1.7551 0
M  V30 25 Pb 1.3825 -4.6103 2.3549 0
M  V30 26 Pd -3.2082 2.7658 -5.6217 0
M  V30 27 Pb -4.0449 2.7251 -5.0866 0
M  V30 28 Pb -2.3439 2.7843 -6.1230 0
M  V30 29 Pb -3.0034 3.6627 -5.2284 0
M  V30 30 Pb -3.3619 1.8050 -5.9167 0
M  V30 31 Pd 4.1469 0.7908 -5.2443 0
M  V30 32 Pb 4.3040 1.6530 -4.7705 0
M  V30 33 Pb 3.4387 1.2198 -5.8047 0
M  V30 34 Pb 3.8766 -0.1216 -5.5928 0
M  V30 35 Pb 4.8379 0.3642 -4.6718 0
M  V30 36 Pd 2.8607 -0.0789 3.5124 0
M  V30 37 Pb 3.0468 -1.0647 3.4444 0
M  V30 38 Pb 2.7395 0.9077 3.5456 0
M  V30 39 Pb 3.0960 -0.0764 4.4852 0
M  V30 40 Pb 2.5074 -0.0408 2.5787 0
M  V30 41 Pd -2.3080 4.7139 4.8513 0
M  V30 42 Pb -1.9015 4.5985 5.7707 0
M  V30 43 Pb -2.6419 4.6262 3.9137 0
M  V30 44 Pb -1.3949 4.8956 4.5073 0
M  V30 45 Pb -3.1938 4.4394 5.2153 0
M  V30 46 Ag -0.5022 -1.3325 7.2848 0
M  V30 47 Fe -0.2793 -2.8664 5.4868 0
M  V30 48 Ag -0.0527 -4.3831 3.6748 0
M  V30 49 Ag 1.7511 4.0296 -0.7775 0
M  V30 50 Fe 3.1366 3.2488 -2.5377 0
M  V30 51 Ag 4.3359 2.2498 -4.3237 0
M  V30 52 Ag -3.6554 -3.8715 -2.3837 0
M  V30 53 Fe -2.4720 -4.5603 -0.4442 0
M  V30 54 Ag -1.1432 -5.1412 1.4352 0
M  V30 55 Ag -4.8798 -1.8183 -3.1890 0
M  V30 56 Fe -5.1604 0.4715 -3.6675 0
M  V30 57 Ag -4.6151 2.5407 -4.6524 0
M  V30 58 Ag -2.1080 0.4776 7.8907 0
M  V30 59 Fe -3.4400 2.1539 6.9052 0
M  V30 60 Ag -3.7308 4.0743 5.5720 0
M  V30 61 Ag 3.4610 -4.0722 -2.8690 0
M  V30 62 Fe 4.7734 -2.1586 -3.2673 0
M  V30 63 Ag 5.2447 -0.0591 -4.2221 0
M  V30 64 Ag -0.4252 5.0807 -0.8514 0
M  V30 65 Fe -1.6488 4.9235 -2.8788 0
M  V30 66 Ag -2.8061 4.2785 -4.8482 0
M  V30 67 Ag 2.6313 1.6443 3.5378 0
M  V30 68 Fe 1.0859 3.4054 3.8674 0
M  V30 69 Ag -0.6874 4.9144 4.2854 0
M  V30 70 Ag -1.6801 2.7806 -6.4707 0
M  V30 71 Fe 0.6148 2.1777 -6.3840 0
M  V30 72 Ag 2.8951 1.5388 -6.2106 0
M  V30 73 Ba 2.0599 -4.3873 2.5907 0
M  V30 74 Ga 2.6330 -3.0813 2.9851 0
M  V30 75 Ba 3.2393 -1.7930 3.3876 0
M  V30 76 Ba 2.4520 -3.3792 -4.9142 0
M  V30 77 Ga 3.0466 -2.0668 -5.3096 0
M  V30 78 Ba 3.6390 -0.8030 -5.8432 0
M  V30 79 Ba -0.4604 2.1150 7.9191 0
M  V30 80 Ga -1.0167 3.2735 7.1589 0
M  V30 81 Ba -1.5574 4.4640 6.4380 0
M  V30 82 Ba -3.6450 -1.7516 -5.2108 0
M  V30 83 Ga -3.5434 -0.3126 -5.6074 0
M  V30 84 Ba -3.4606 1.0804 -6.1470 0
M  V30 85 Ba 0.4043 -4.6932 -4.4102 0
M  V30 86 Ga -1.0074 -4.2521 -4.4444 0
M  V30 87 Ba -2.4343 -3.8806 -4.5636 0
M  V30 88 Ba 1.3556 0.2833 7.5076 0
M  V30 89 Ga 2.2913 0.1228 6.3726 0
M  V30 90 Ba 3.2131 -0.0364 5.2262 0
M  V30 91 Ba 0.7831 2.1447 0.3856 0
M  V30 92 Ga 1.4944 1.1263 1.1914 0
M  V30 93 Ba 2.1822 0.0265 1.9064 0
M  V30 94 Ba -1.3675 3.7366 0.7576 0
M  V30 95 Ga -2.0993 4.0997 1.9903 0
M  V30 96 Ba -2.8505 4.4550 3.2137 0
M  V30 97 Ba 1.5564 -5.5381 -2.2760 0
M  V30 98 Ga 1.2404 -5.5440 -0.8333 0
M  V30 99 Ba 0.9326 -5.6827 0.6043 0
M  V30 END ATOM
M  V30 BEGIN BOND
M  V30 1 1 1 2
M  V30 2 1 1 3
M  V30 3 1 1 4
M  V30 4 1 1 5
M  V30 5 1 6 7
M  V30 6 1 6 8
M  V30 7 1 6 9
M  V30 8 1 6 10
M  V30 9 1 11 12
M  V30 10 1 11 13
M  V30 11 1 11 14
M  V30 12 1 11 15
M  V30 13 1 16 17
M  V30 14 1 16 18
M  V30 15 1 16 19
M  V30 16 1 16 20
M  V30 17 1 21 22
M  V30 18 1 21 23
M  V30 19 1 21 24
M  V30 20 1 21 25
M  V30 21 1 26 27
M  V30 22 1 26 28
M  V30 23 1 26 29
M  V30 24 1 26 30
M  V30 25 1 31 32
M  V30 26 1 31 33
M  V30 27 1 31 34
M  V30 28 1 31 35
M  V30 29 1 36 37
M  V30 30 1 36 38
M  V30 31 1 36 39
M  V30 32 1 36 40
M  V30 33 1 41 42
M  V30 34 1 41 43
M  V30 35 1 41 44
M  V30 36 1 41 45
M  V30 37 1 46 47
M  V30 38 1 47 48
M  V30 39 1 49 50
M  V30 40 1 50 51
M  V30 41 1 52 53
M  V30 42 1 53 54
M  V30 43 1 55 56
M  V30 44 1 56 57
M  V30 45 1 58 59
M  V30 46 1 59 60
M  V30 47 1 61 62
M  V30 48 1 62 63
M  V30 49 1 64 65
M  V30 50 1 65 66
M  V30 51 1 67 68
M  V30 52 1 68 69
M  V30 53 1 70 71
M  V30 54 1 71 72
M  V30 55 1 73 74
M  V30 56 1 74 75
M  V30 57 1 76 77
M  V30 58 1 77 78
M  V30 59 1 79 80
M  V30 60 1 80 81
M  V30 61 1 82 83
M  V30 62 1 83 84
M  V30 63 1 85 86
M  V30 64 1 86 87
M  V30 65 1 88 89
M  V30 66 1 89 90
M  V30 67 1 91 92
M  V30 68 1 92 93
M  V30 69 1 94 95
M  V30 70 1 95 96
M  V30 71 1 97 98
M  V30 72 1 98 99
M  V30 73 1 2 49
M  V30 74 1 3 94
M  V30 75 1 4 64
M  V30 76 1 5 91
M  V30 77 1 7 46
M  V30 78 1 8 79
M  V30 79 1 9 88
M  V30 80 1 10 58
M  V30 81 1 12 61
M  V30 82 1 13 97
M  V30 83 1 14 85
M  V30 84 1 15 76
M  V30 85 1 17 87
M  V30 86 1 18 55
M  V30 87 1 19 52
M  V30 88 1 20 82
M  V30 89 1 22 48
M  V30 90 1 23 99
M  V30 91 1 24 54
M  V30 92 1 25 73
M  V30 93 1 27 57
M  V30 94 1 28 70
M  V30 95 1 29 66
M  V30 96 1 30 84
M  V30 97 1 32 51
M  V30 98 1 33 72
M  V30 99 1 34 78
M  V30 100 1 35 63
M  V30 101 1 37 75
M  V30 102 1 38 67
M  V30 103 1 39 90
M  V30 104 1 40 93
M  V30 105 1 42 81
M  V30 106 1 43 96
M  V30 107 1 44 69
M  V30 108 1 45 60
M  V30 END BOND
M  V30 END CTAB
M  END

$$$$
