
     RDKit          3D

  0  0  0  0  0  0  0  0  0  0999 V3000
M  V30 BEGIN CTAB
M  V30 COUNTS 99 108 0 0 0
M  V30 BEGIN ATOM
M  V30 1 Pd 1.3168 -2.0239 3.2062 0
M  V30 2 Pb 0.8254 -2.8173 3.5608 0
M  V30 3 Pb 1.7499 -1.2142 2.8054 0
M  V30 4 Pb 1.5489 -1.7205 4.1326 0
M  V30 5 Pb 1.0357 -2.3133 2.2941 0
M  V30 6 Pd 7.3244 2.4697 -3.8886 0
M  V30 7 Pb 6.5621 2.9179 -4.3559 0
M  V30 8 Pb 7.1626 2.9848 -3.0473 0
M  V30 9 Pb 7.3989 1.8324 -4.6485 0
M  V30 10 Pb 7.9862 1.9132 -3.3935 0
M  V30 11 Pd -6.2758 -0.5191 -0.6841 0
M  V30 12 Pb -6.7971 -0.5684 0.1717 0
M  V30 13 Pb -5.7569 -0.4990 -1.5423 0
M  V30 14 Pb -6.4725 0.4613 -0.7674 0
M  V30 15 Pb -6.1102 -1.5031 -0.6110 0
M  V30 16 Pd -3.9740 4.2072 0.7554 0
M  V30 17 Pb -4.8206 3.9879 0.2698 0
M  V30 18 Pb -3.1181 4.3430 1.2590 0
M  V30 19 Pb -3.5213 4.4099 -0.1105 0
M  V30 20 Pb -4.3987 4.0002 1.6327 0
M  V30 21 Pd -0.1287 1.3738 -5.2453 0
M  V30 22 Pb 0.7277 1.8698 -5.4106 0
M  V30 23 Pb -1.0003 0.9077 -5.0771 0
M  V30 24 Pb -0.4910 2.1879 -4.7960 0
M  V30 25 Pb 0.2153 0.5508 -5.7021 0
M  V30 26 Pd -1.2901 1.0683 6.5912 0
M  V30 27 Pb -0.8661 1.7828 6.0335 0
M  V30 28 Pb -1.8022 0.3374 7.0369 0
M  V30 29 Pb -0.4169 0.5908 6.7015 0
M  V30 30 Pb -2.1640 1.5135 6.4127 0
M  V30 31 Pd -5.6606 -3.5995 3.4938 0
M  V30 32 Pb -4.8611 -4.1778 3.6422 0
M  V30 33 Pb -5.5464 -3.3106 4.4436 0
M  V30 34 Pb -5.7045 -3.8597 2.5303 0
M  V30 35 Pb -6.3927 -2.9367 3.3279 0
M  V30 36 Pd 3.1227 -2.8925 -4.0652 0
M  V30 37 Pb 2.5362 -2.6394 -4.8353 0
M  V30 38 Pb 3.7005 -3.0953 -3.2679 0
M  V30 39 Pb 3.9143 -2.6985 -4.6394 0
M  V30 40 Pb 2.3344 -3.0435 -3.4770 0
M  V30 41 Pd 5.6872 -0.0335 -0.1140 0
M  V30 42 Pb 5.8877 0.9476 -0.0529 0
M  V30 43 Pb 4.8100 0.1363 0.3424 0
M  V30 44 Pb 5.4824 -1.0037 -0.2724 0
M  V30 45 Pb 6.5943 -0.1597 -0.5162 0
M  V30 46 Ag 5.9484 3.1686 -4.7078 0
M  V30 47 Fe 3.6456 2.7558 -5.1317 0
M  V30 48 Ag 1.3472 2.2851 -5.5179 0
M  V30 49 Ag 0.3895 -3.3951 3.7504 0
M  V30 50 Fe -1.8723 -4.1072 3.8248 0
M  V30 51 Ag -4.2092 -4.5141 3.7878 0
M  V30 52 Ag -3.1708 4.5474 -0.7566 0
M  V30 53 Fe -1.9697 3.7011 -2.6193 0
M  V30 54 Ag -0.7745 2.7904 -4.4553 0
M  V30 55 Ag -2.5010 4.3762 1.6883 0
M  V30 56 Fe -1.4525 3.4371 3.6041 0
M  V30 57 Ag -0.6616 2.3154 5.5451 0
M  V30 58 Ag -4.6265 3.8348 2.3236 0
M  V30 59 Fe -3.8656 2.8605 4.3456 0
M  V30 60 Ag -2.8034 1.8338 6.1988 0
M  V30 61 Ag 7.3592 1.2581 -5.1194 0
M  V30 62 Fe 6.0381 -0.6985 -5.2972 0
M  V30 63 Ag 4.4883 -2.4732 -5.0601 0
M  V30 64 Ag 0.8038 -2.5333 1.6186 0
M  V30 65 Fe 1.2303 -2.8574 -0.6906 0
M  V30 66 Ag 1.7881 -3.1315 -2.9781 0
M  V30 67 Ag -2.2858 -0.1874 7.2604 0
M  V30 68 Fe -3.8693 -1.7059 6.3558 0
M  V30 69 Ag -5.3489 -3.1047 5.1365 0
M  V30 70 Ag -5.3756 -0.5147 -2.1915 0
M  V30 71 Fe -3.5059 0.0460 -3.5500 0
M  V30 72 Ag -1.6640 0.5733 -4.9590 0
M  V30 73 Ba 0.4366 -0.0783 -6.0497 0
M  V30 74 Ga 1.2793 -1.2470 -5.7252 0
M  V30 75 Ba 2.1181 -2.4237 -5.4201 0
M  V30 76 Ba -6.0090 -2.2436 -0.5435 0
M  V30 77 Ga -5.8623 -3.1503 0.6102 0
M  V30 78 Ba -5.7194 -4.0132 1.7973 0
M  V30 79 Ba 8.3911 1.4286 -2.9956 0
M  V30 80 Ga 7.9120 0.5832 -1.8897 0
M  V30 81 Ba 7.2863 -0.1906 -0.8044 0
M  V30 82 Ba 7.0177 3.2660 -2.3670 0
M  V30 83 Ga 6.5312 2.5367 -1.1771 0
M  V30 84 Ba 6.0448 1.6841 -0.0719 0
M  V30 85 Ba -7.1879 -0.6400 0.8119 0
M  V30 86 Ga -7.0657 -1.5153 1.9975 0
M  V30 87 Ba -6.9038 -2.4107 3.1632 0
M  V30 88 Ba -6.6421 1.1915 -0.8425 0
M  V30 89 Ga -6.0408 2.4874 -0.4645 0
M  V30 90 Ba -5.4476 3.7884 -0.0910 0
M  V30 91 Ba 1.6985 -1.4875 4.8319 0
M  V30 92 Ga 0.9825 -0.6332 5.8019 0
M  V30 93 Ba 0.2385 0.2258 6.7463 0
M  V30 94 Ba 4.0883 -3.2494 -2.6381 0
M  V30 95 Ga 4.7228 -2.4771 -1.5439 0
M  V30 96 Ba 5.3656 -1.7308 -0.4367 0
M  V30 97 Ba 2.0162 -0.5932 2.4755 0
M  V30 98 Ga 3.1267 -0.1831 1.5897 0
M  V30 99 Ba 4.1861 0.3497 0.7069 0
M  V30 END ATOM
M  V30 BEGIN BOND
M  V30 1 1 1 2
M  V30 2 1 1 3
M  V30 3 1 1 4
M  V30 4 1 1 5
M  V30 5 1 6 7
M  V30 6 1 6 8
M  V30 7 1 6 9
M  V30 8 1 6 10
M  V30 9 1 11 12
M  V30 10 1 11 13
M  V30 11 1 11 14
M  V30 12 1 11 15
M  V30 13 1 16 17
M  V30 14 1 16 18
M  V30 15 1 16 19
M  V30 16 1 16 20
M  V30 17 1 21 22
M  V30 18 1 21 23
M  V30 19 1 21 24
M  V30 20 1 21 25
M  V30 21 1 26 27
M  V30 22 1 26 28
M  V30 23 1 26 29
M  V30 24 1 26 30
M  V30 25 1 31 32
M  V30 26 1 31 33
M  V30 27 1 31 34
M  V30 28 1 31 35
M  V30 29 1 36 37
M  V30 30 1 36 38
M  V30 31 1 36 39
M  V30 32 1 36 40
M  V30 33 1 41 42
M  V30 34 1 41 43
M  V30 35 1 41 44
M  V30 36 1 41 45
M  V30 37 1 46 47
M  V30 38 1 47 48
M  V30 39 1 49 50
M  V30 40 1 50 51
M  V30 41 1 52 53
M  V30 42 1 53 54
M  V30 43 1 55 56
M  V30 44 1 56 57
M  V30 45 1 58 59
M  V30 46 1 59 60
M  V30 47 1 61 62
M  V30 48 1 62 63
M  V30 49 1 64 65
M  V30 50 1 65 66
M  V30 51 1 67 68
M  V30 52 1 68 69
M  V30 53 1 70 71
M  V30 54 1 71 72
M  V30 55 1 73 74
M  V30 56 1 74 75
M  V30 57 1 76 77
M  V30 58 1 77 78
M  V30 59 1 79 80
M  V30 60 1 80 81
M  V30 61 1 82 83
M  V30 62 1 83 84
M  V30 63 1 85 86
M  V30 64 1 86 87
M  V30 65 1 88 89
M  V30 66 1 89 90
M  V30 67 1 91 92
M  V30 68 1 92 93
M  V30 69 1 94 95
M  V30 70 1 95 96
M  V30 71 1 97 98
M  V30 72 1 98 99
M  V30 73 1 2 49
M  V30 74 1 3 97
M  V30 75 1 4 91
M  V30 76 1 5 64
M  V30 77 1 7 46
M  V30 78 1 8 82
M  V30 79 1 9 61
M  V30 80 1 10 79
M  V30 81 1 12 85
M  V30 82 1 13 70
M  V30 83 1 14 88
M  V30 84 1 15 76
M  V30 85 1 17 90
M  V30 86 1 18 55
M  V30 87 1 19 52
M  V30 88 1 20 58
M  V30 89 1 22 48
M  V30 90 1 23 72
M  V30 91 1 24 54
M  V30 92 1 25 73
M  V30 93 1 27 57
M  V30 94 1 28 67
M  V30 95 1 29 93
M  V30 96 1 30 60
M  V30 97 1 32 51
M  V30 98 1 33 69
M  V30 99 1 34 78
M  V30 100 1 35 87
M  V30 101 1 37 75
M  V30 102 1 38 94
M  V30 103 1 39 63
M  V30 104 1 40 66
M  V30 105 1 42 84
M  V30 106 1 43 99
M  V30 107 1 44 96
M  V30 108 1 45 81
M  V30 END BOND
M  V30 END CTAB
M  END

$$$$
