
     RDKit          3D

  0  0  0  0  0  0  0  0  0  0999 V3000
M  V30 BEGIN CTAB
M  V30 COUNTS 99 108 0 0 0
M  V30 BEGIN ATOM
M  V30 1 Pd -0.0142 -3.6214 3.9691 0
M  V30 2 Pb -0.7995 -3.2982 4.5018 0
M  V30 3 Pb 0.5850 -3.1018 4.5834 0
M  V30 4 Pb -0.5852 -4.1925 3.3776 0
M  V30 5 Pb 0.7620 -3.9340 3.4228 0
M  V30 6 Pd 5.5871 3.1156 1.6352 0
M  V30 7 Pb 4.6721 3.0825 1.2362 0
M  V30 8 Pb 6.4827 3.1304 2.0762 0
M  V30 9 Pb 5.9908 2.7331 0.7991 0
M  V30 10 Pb 5.1937 3.4634 2.4907 0
M  V30 11 Pd -4.0369 4.5855 -1.5680 0
M  V30 12 Pb -3.5915 4.4515 -0.6764 0
M  V30 13 Pb -3.2257 4.9779 -2.0016 0
M  V30 14 Pb -4.4763 4.6221 -2.4627 0
M  V30 15 Pb -4.8344 4.1381 -1.1749 0
M  V30 16 Pd -3.7909 -0.1008 -6.8135 0
M  V30 17 Pb -4.2438 0.7876 -6.8102 0
M  V30 18 Pb -3.3476 -0.9911 -6.6962 0
M  V30 19 Pb -2.9390 0.3525 -7.0830 0
M  V30 20 Pb -4.6289 -0.5394 -6.4922 0
M  V30 21 Pd 0.2430 2.4240 -4.1125 0
M  V30 22 Pb 0.5128 2.5328 -3.1576 0
M  V30 23 Pb -0.1853 3.3276 -4.0510 0
M  V30 24 Pb -0.0257 2.2991 -5.0708 0
M  V30 25 Pb 0.7323 1.5529 -4.1441 0
M  V30 26 Pd -5.0155 -5.0640 -1.8082 0
M  V30 27 Pb -4.3783 -5.0515 -2.5820 0
M  V30 28 Pb -5.6169 -4.9840 -1.0150 0
M  V30 29 Pb -4.3428 -5.4687 -1.1910 0
M  V30 30 Pb -5.6606 -4.5901 -2.4042 0
M  V30 31 Pd -4.7627 -0.4702 3.5787 0
M  V30 32 Pb -4.1701 -0.9567 4.2252 0
M  V30 33 Pb -5.3316 -1.2844 3.4772 0
M  V30 34 Pb -5.3696 0.0126 2.9534 0
M  V30 35 Pb -4.1787 0.3466 3.5490 0
M  V30 36 Pd 5.6750 -1.7662 -0.6819 0
M  V30 37 Pb 5.0393 -1.6676 -1.4483 0
M  V30 38 Pb 6.2785 -1.8887 0.1041 0
M  V30 39 Pb 6.1166 -0.9002 -0.9262 0
M  V30 40 Pb 5.1868 -2.5771 -0.3676 0
M  V30 41 Pd 6.1188 0.9102 5.8130 0
M  V30 42 Pb 6.8825 1.4345 5.4403 0
M  V30 43 Pb 5.3266 0.3780 6.1166 0
M  V30 44 Pb 6.6063 0.0832 5.5519 0
M  V30 45 Pb 5.5982 1.7586 5.8782 0
M  V30 46 Ag 3.9693 3.0537 0.9789 0
M  V30 47 Fe 2.3641 2.8352 -0.7555 0
M  V30 48 Ag 0.7061 2.6236 -2.4405 0
M  V30 49 Ag 1.1362 0.9214 -4.1471 0
M  V30 50 Fe 2.8369 -0.3651 -3.1013 0
M  V30 51 Ag 4.5447 -1.6030 -2.0092 0
M  V30 52 Ag -3.0929 -1.6738 -6.5108 0
M  V30 53 Fe -3.4053 -3.4038 -4.9095 0
M  V30 54 Ag -3.9351 -4.9494 -3.1817 0
M  V30 55 Ag -5.3750 3.7469 -0.8440 0
M  V30 56 Fe -5.7324 2.0783 0.7991 0
M  V30 57 Ag -5.7875 0.4114 2.4816 0
M  V30 58 Ag -3.3204 4.2696 0.0057 0
M  V30 59 Fe -3.4663 2.6839 1.7780 0
M  V30 60 Ag -3.7872 0.9774 3.4094 0
M  V30 61 Ag -5.2108 -0.9080 -6.1992 0
M  V30 62 Fe -5.7986 -2.5393 -4.5797 0
M  V30 63 Ag -6.0586 -4.1860 -2.8916 0
M  V30 64 Ag -4.7524 4.5713 -3.1551 0
M  V30 65 Fe -4.7684 3.1327 -5.0393 0
M  V30 66 Ag -4.5585 1.4560 -6.7021 0
M  V30 67 Ag -0.9422 -4.6672 2.9173 0
M  V30 68 Fe -2.4038 -5.1935 1.1203 0
M  V30 69 Ag -3.8672 -5.7265 -0.6731 0
M  V30 70 Ag 1.3077 -4.1796 2.9716 0
M  V30 71 Fe 3.0684 -3.7192 1.4483 0
M  V30 72 Ag 4.8111 -3.1436 -0.0564 0
M  V30 73 Ag 6.6654 -2.0091 0.7334 0
M  V30 74 Fe 6.9410 -1.3771 3.0018 0
M  V30 75 Ag 6.9471 -0.4732 5.1930 0
M  V30 76 Ag 1.0181 -2.7356 5.0790 0
M  V30 77 Fe 2.8749 -1.3759 5.6766 0
M  V30 78 Ag 4.7197 -0.0184 6.3152 0
M  V30 79 Ag -5.9838 -4.8718 -0.3723 0
M  V30 80 Fe -5.9988 -3.4654 1.5388 0
M  V30 81 Ag -5.7377 -1.8839 3.2884 0
M  V30 82 Ba -1.3585 -3.0385 4.9332 0
M  V30 83 Ga -2.5571 -2.1849 4.7897 0
M  V30 84 Ba -3.7707 -1.3426 4.7335 0
M  V30 85 Ba -2.3173 0.7315 -7.2715 0
M  V30 86 Ga -1.2623 1.4498 -6.5247 0
M  V30 87 Ba -0.2001 2.1727 -5.7926 0
M  V30 88 Ba 4.9221 3.6933 3.1551 0
M  V30 89 Ga 5.0284 3.1076 4.5067 0
M  V30 90 Ba 5.2233 2.3996 5.7876 0
M  V30 91 Ba 7.1159 3.1217 2.4746 0
M  V30 92 Ga 7.3534 2.4996 3.7872 0
M  V30 93 Ba 7.4195 1.8222 5.0922 0
M  V30 94 Ba 6.3094 2.4397 0.1817 0
M  V30 95 Ga 6.3637 1.1048 -0.4545 0
M  V30 96 Ba 6.4174 -0.2303 -1.0904 0
M  V30 97 Ba -2.6529 5.2502 -2.4030 0
M  V30 98 Ga -1.5512 4.6355 -3.1715 0
M  V30 99 Ba -0.4494 4.0235 -3.9421 0
M  V30 END ATOM
M  V30 BEGIN BOND
M  V30 1 1 1 2
M  V30 2 1 1 3
M  V30 3 1 1 4
M  V30 4 1 1 5
M  V30 5 1 6 7
M  V30 6 1 6 8
M  V30 7 1 6 9
M  V30 8 1 6 10
M  V30 9 1 11 12
M  V30 10 1 11 13
M  V30 11 1 11 14
M  V30 12 1 11 15
M  V30 13 1 16 17
M  V30 14 1 16 18
M  V30 15 1 16 19
M  V30 16 1 16 20
M  V30 17 1 21 22
M  V30 18 1 21 23
M  V30 19 1 21 24
M  V30 20 1 21 25
M  V30 21 1 26 27
M  V30 22 1 26 28
M  V30 23 1 26 29
M  V30 24 1 26 30
M  V30 25 1 31 32
M  V30 26 1 31 33
M  V30 27 1 31 34
M  V30 28 1 31 35
M  V30 29 1 36 37
M  V30 30 1 36 38
M  V30 31 1 36 39
M  V30 32 1 36 40
M  V30 33 1 41 42
M  V30 34 1 41 43
M  V30 35 1 41 44
M  V30 36 1 41 45
M  V30 37 1 46 47
M  V30 38 1 47 48
M  V30 39 1 49 50
M  V30 40 1 50 51
M  V30 41 1 52 53
M  V30 42 1 53 54
M  V30 43 1 55 56
M  V30 44 1 56 57
M  V30 45 1 58 59
M  V30 46 1 59 60
M  V30 47 1 61 62
M  V30 48 1 62 63
M  V30 49 1 64 65
M  V30 50 1 65 66
M  V30 51 1 67 68
M  V30 52 1 68 69
M  V30 53 1 70 71
M  V30 54 1 71 72
M  V30 55 1 73 74
M  V30 56 1 74 75
M  V30 57 1 76 77
M  V30 58 1 77 78
M  V30 59 1 79 80
M  V30 60 1 80 81
M  V30 61 1 82 83
M  V30 62 1 83 84
M  V30 63 1 85 86
M  V30 64 1 86 87
M  V30 65 1 88 89
M  V30 66 1 89 90
M  V30 67 1 91 92
M  V30 68 1 92 93
M  V30 69 1 94 95
M  V30 70 1 95 96
M  V30 71 1 97 98
M  V30 72 1 98 99
M  V30 73 1 2 82
M  V30 74 1 3 76
M  V30 75 1 4 67
M  V30 76 1 5 70
M  V30 77 1 7 46
M  V30 78 1 8 91
M  V30 79 1 9 94
M  V30 80 1 10 88
M  V30 81 1 12 58
M  V30 82 1 13 97
M  V30 83 1 14 64
M  V30 84 1 15 55
M  V30 85 1 17 66
M  V30 86 1 18 52
M  V30 87 1 19 85
M  V30 88 1 20 61
M  V30 89 1 22 48
M  V30 90 1 23 99
M  V30 91 1 24 87
M  V30 92 1 25 49
M  V30 93 1 27 54
M  V30 94 1 28 79
M  V30 95 1 29 69
M  V30 96 1 30 63
M  V30 97 1 32 84
M  V30 98 1 33 81
M  V30 99 1 34 57
M  V30 100 1 35 60
M  V30 101 1 37 51
M  V30 102 1 38 73
M  V30 103 1 39 96
M  V30 104 1 40 72
M  V30 105 1 42 93
M  V30 106 1 43 78
M  V30 107 1 44 75
M  V30 108 1 45 90
M  V30 END BOND
M  V30 END CTAB
M  END

$$$$
