
     RDKit          3D

  0  0  0  0  0  0  0  0  0  0999 V3000
M  V30 BEGIN CTAB
M  V30 COUNTS 99 108 0 0 0
M  V30 BEGIN ATOM
M  V30 1 Pd 1.9174 -8.0606 -2.9657 0
M  V30 2 Pb 2.1456 -7.1225 -2.7047 0
M  V30 3 Pb 1.5050 -7.7100 -3.8109 0
M  V30 4 Pb 1.7153 -9.0072 -3.2367 0
M  V30 5 Pb 1.9126 -8.3170 -1.9954 0
M  V30 6 Pd 3.1946 3.7483 -1.5020 0
M  V30 7 Pb 3.3339 4.3802 -0.7365 0
M  V30 8 Pb 2.2576 4.0781 -1.6358 0
M  V30 9 Pb 4.1175 3.3994 -1.3454 0
M  V30 10 Pb 3.0810 3.0892 -2.2479 0
M  V30 11 Pd -1.8887 -6.9123 -1.7263 0
M  V30 12 Pb -1.4886 -7.2942 -0.8889 0
M  V30 13 Pb -1.4147 -6.0517 -1.5411 0
M  V30 14 Pb -2.3856 -7.7680 -1.9035 0
M  V30 15 Pb -1.8946 -6.6830 -2.7034 0
M  V30 16 Pd -4.8938 3.6811 -0.2416 0
M  V30 17 Pb -5.2503 3.1462 0.5336 0
M  V30 18 Pb -4.7086 2.8159 -0.7434 0
M  V30 19 Pb -4.5998 4.1965 -1.0372 0
M  V30 20 Pb -4.9430 4.5658 0.2265 0
M  V30 21 Pd -2.6793 0.8424 3.2661 0
M  V30 22 Pb -2.5599 0.2258 2.4879 0
M  V30 23 Pb -1.7252 1.1756 3.1902 0
M  V30 24 Pb -3.6689 0.7568 3.1945 0
M  V30 25 Pb -2.7957 1.3824 4.0943 0
M  V30 26 Pd -0.9613 5.6322 1.6285 0
M  V30 27 Pb -1.7095 6.2548 1.4002 0
M  V30 28 Pb -0.8043 5.4191 0.6620 0
M  V30 29 Pb -1.1047 5.8723 2.5844 0
M  V30 30 Pb -0.4181 4.8254 1.9151 0
M  V30 31 Pd -0.7877 0.6567 -3.2298 0
M  V30 32 Pb -0.9719 1.4790 -3.7544 0
M  V30 33 Pb -1.7436 0.6688 -2.8776 0
M  V30 34 Pb 0.1616 0.7042 -3.5365 0
M  V30 35 Pb -0.5866 -0.1691 -2.7027 0
M  V30 36 Pd 1.4206 -1.9873 1.9019 0
M  V30 37 Pb 0.4971 -2.0445 1.5259 0
M  V30 38 Pb 1.0580 -1.5732 2.7318 0
M  V30 39 Pb 1.7874 -2.4020 1.0694 0
M  V30 40 Pb 2.3559 -1.8147 2.2519 0
M  V30 41 Pd 4.8606 2.3990 2.9234 0
M  V30 42 Pb 4.8775 1.3917 3.0265 0
M  V30 43 Pb 4.2498 2.4544 3.7078 0
M  V30 44 Pb 5.4290 2.3366 2.1053 0
M  V30 45 Pb 4.7219 3.3687 2.7252 0
M  V30 46 Ag -4.3243 4.4849 -1.6594 0
M  V30 47 Fe -2.7395 3.6910 -3.2056 0
M  V30 48 Ag -1.1888 2.1280 -4.0321 0
M  V30 49 Ag 2.3293 -6.4204 -2.5149 0
M  V30 50 Fe 2.1885 -4.5702 -1.0327 0
M  V30 51 Ag 2.0550 -2.7136 0.4422 0
M  V30 52 Ag -2.8129 1.8815 4.6412 0
M  V30 53 Fe -2.1431 4.1323 4.5880 0
M  V30 54 Ag -1.2795 5.8981 3.3029 0
M  V30 55 Ag 0.9127 -1.1704 3.3376 0
M  V30 56 Fe 2.0254 0.7084 4.2227 0
M  V30 57 Ag 3.7107 2.3544 4.2064 0
M  V30 58 Ag 1.3736 -9.6555 -3.3773 0
M  V30 59 Fe -0.9190 -9.9067 -2.9491 0
M  V30 60 Ag -2.5630 -8.4661 -2.0984 0
M  V30 61 Ag -1.0672 -5.4032 -1.3966 0
M  V30 62 Fe -0.7483 -3.0952 -1.8566 0
M  V30 63 Ag -0.4231 -0.7867 -2.3098 0
M  V30 64 Ba -2.4709 -0.2823 1.9431 0
M  V30 65 Ga -1.3516 -1.1639 1.5637 0
M  V30 66 Ba -0.1930 -2.0150 1.2367 0
M  V30 67 Ba 1.7040 -8.4289 -1.2753 0
M  V30 68 Ga 0.3703 -8.0610 -0.7190 0
M  V30 69 Ba -1.0135 -7.6124 -0.3913 0
M  V30 70 Ba -4.5673 2.1629 -1.1204 0
M  V30 71 Ga -3.4708 1.4640 -1.8618 0
M  V30 72 Ba -2.4688 0.6549 -2.6243 0
M  V30 73 Ba 1.5492 4.3080 -1.7417 0
M  V30 74 Ga 0.4417 4.7911 -0.8904 0
M  V30 75 Ba -0.6853 5.2771 -0.0670 0
M  V30 76 Ba 1.0223 -7.4116 -4.3133 0
M  V30 77 Ga -0.3621 -6.9645 -3.9861 0
M  V30 78 Ba -1.6936 -6.5908 -3.4284 0
M  V30 79 Ba 3.0182 2.5764 -2.7942 0
M  V30 80 Ga 1.9538 1.6785 -3.2823 0
M  V30 81 Ba 0.8733 0.7907 -3.7531 0
M  V30 82 Ba 3.0553 -1.6707 2.5230 0
M  V30 83 Ga 3.9347 -0.4951 2.7910 0
M  V30 84 Ba 4.8691 0.6310 3.0851 0
M  V30 85 Ba 3.4821 4.8197 -0.1439 0
M  V30 86 Ga 4.0206 4.5038 1.1946 0
M  V30 87 Ba 4.5609 4.0645 2.4970 0
M  V30 88 Ba -4.8733 5.2713 0.4819 0
M  V30 89 Ga -3.6596 6.0066 0.9021 0
M  V30 90 Ba -2.3673 6.6052 1.3043 0
M  V30 91 Ba -5.5434 2.6959 1.0675 0
M  V30 92 Ga -5.0158 1.7546 2.0800 0
M  V30 93 Ba -4.4009 0.8421 3.0688 0
M  V30 94 Ba 4.7971 3.1317 -1.1806 0
M  V30 95 Ga 5.3625 2.7068 0.1108 0
M  V30 96 Ba 5.8052 2.3154 1.4592 0
M  V30 97 Ba -1.0400 1.5030 3.0940 0
M  V30 98 Ga -0.5630 2.8417 2.6235 0
M  V30 99 Ba -0.0828 4.1794 2.1535 0
M  V30 END ATOM
M  V30 BEGIN BOND
M  V30 1 1 1 2
M  V30 2 1 1 3
M  V30 3 1 1 4
M  V30 4 1 1 5
M  V30 5 1 6 7
M  V30 6 1 6 8
M  V30 7 1 6 9
M  V30 8 1 6 10
M  V30 9 1 11 12
M  V30 10 1 11 13
M  V30 11 1 11 14
M  V30 12 1 11 15
M  V30 13 1 16 17
M  V30 14 1 16 18
M  V30 15 1 16 19
M  V30 16 1 16 20
M  V30 17 1 21 22
M  V30 18 1 21 23
M  V30 19 1 21 24
M  V30 20 1 21 25
M  V30 21 1 26 27
M  V30 22 1 26 28
M  V30 23 1 26 29
M  V30 24 1 26 30
M  V30 25 1 31 32
M  V30 26 1 31 33
M  V30 27 1 31 34
M  V30 28 1 31 35
M  V30 29 1 36 37
M  V30 30 1 36 38
M  V30 31 1 36 39
M  V30 32 1 36 40
M  V30 33 1 41 42
M  V30 34 1 41 43
M  V30 35 1 41 44
M  V30 36 1 41 45
M  V30 37 1 46 47
M  V30 38 1 47 48
M  V30 39 1 49 50
M  V30 40 1 50 51
M  V30 41 1 52 53
M  V30 42 1 53 54
M  V30 43 1 55 56
M  V30 44 1 56 57
M  V30 45 1 58 59
M  V30 46 1 59 60
M  V30 47 1 61 62
M  V30 48 1 62 63
M  V30 49 1 64 65
M  V30 50 1 65 66
M  V30 51 1 67 68
M  V30 52 1 68 69
M  V30 53 1 70 71
M  V30 54 1 71 72
M  V30 55 1 73 74
M  V30 56 1 74 75
M  V30 57 1 76 77
M  V30 58 1 77 78
M  V30 59 1 79 80
M  V30 60 1 80 81
M  V30 61 1 82 83
M  V30 62 1 83 84
M  V30 63 1 85 86
M  V30 64 1 86 87
M  V30 65 1 88 89
M  V30 66 1 89 90
M  V30 67 1 91 92
M  V30 68 1 92 93
M  V30 69 1 94 95
M  V30 70 1 95 96
M  V30 71 1 97 98
M  V30 72 1 98 99
M  V30 73 1 2 49
M  V30 74 1 3 76
M  V30 75 1 4 58
M  V30 76 1 5 67
M  V30 77 1 7 85
M  V30 78 1 8 73
M  V30 79 1 9 94
M  V30 80 1 10 79
M  V30 81 1 12 69
M  V30 82 1 13 61
M  V30 83 1 14 60
M  V30 84 1 15 78
M  V30 85 1 17 91
M  V30 86 1 18 70
M  V30 87 1 19 46
M  V30 88 1 20 88
M  V30 89 1 22 64
M  V30 90 1 23 97
M  V30 91 1 24 93
M  V30 92 1 25 52
M  V30 93 1 27 90
M  V30 94 1 28 75
M  V30 95 1 29 54
M  V30 96 1 30 99
M  V30 97 1 32 48
M  V30 98 1 33 72
M  V30 99 1 34 81
M  V30 100 1 35 63
M  V30 101 1 37 66
M  V30 102 1 38 55
M  V30 103 1 39 51
M  V30 104 1 40 82
M  V30 105 1 42 84
M  V30 106 1 43 57
M  V30 107 1 44 96
M  V30 108 1 45 87
M  V30 END BOND
M  V30 END CTAB
M  END

$$$$
