
     RDKit          3D

  0  0  0  0  0  0  0  0  0  0999 V3000
M  V30 BEGIN CTAB
M  V30 COUNTS 99 108 0 0 0
M  V30 BEGIN ATOM
M  V30 1 Pd -3.4435 3.0119 2.0915 0
M  V30 2 Pb -4.1394 2.9784 1.3857 0
M  V30 3 Pb -3.1849 3.9211 1.7619 0
M  V30 4 Pb -3.6979 2.0826 2.3656 0
M  V30 5 Pb -2.7911 3.0910 2.8431 0
M  V30 6 Pd 0.0029 0.4281 6.1698 0
M  V30 7 Pb -0.4351 1.2100 5.7260 0
M  V30 8 Pb -0.5546 -0.2720 5.7145 0
M  V30 9 Pb 0.4708 -0.3220 6.6237 0
M  V30 10 Pb 0.7356 1.0460 6.4427 0
M  V30 11 Pd 4.4366 -0.4505 -3.0711 0
M  V30 12 Pb 5.2197 -0.2221 -2.4901 0
M  V30 13 Pb 4.3645 -1.3784 -2.7049 0
M  V30 14 Pb 3.6544 -0.6102 -3.6719 0
M  V30 15 Pb 4.4347 0.4807 -3.4187 0
M  V30 16 Pd 3.1265 -4.7617 3.0863 0
M  V30 17 Pb 3.1850 -4.7935 2.0893 0
M  V30 18 Pb 3.0866 -4.6790 4.0753 0
M  V30 19 Pb 4.1048 -4.5687 3.1148 0
M  V30 20 Pb 2.1236 -4.6964 3.0943 0
M  V30 21 Pd -0.8159 -2.8555 -3.9165 0
M  V30 22 Pb -0.1175 -2.2175 -4.2367 0
M  V30 23 Pb -1.4893 -3.5327 -3.6546 0
M  V30 24 Pb -1.2818 -2.7868 -4.7966 0
M  V30 25 Pb -0.4934 -2.8340 -2.9638 0
M  V30 26 Pd 5.7091 1.7404 2.0285 0
M  V30 27 Pb 5.2766 2.5889 1.7088 0
M  V30 28 Pb 6.0896 1.5166 1.1283 0
M  V30 29 Pb 6.0857 0.8668 2.3433 0
M  V30 30 Pb 5.3524 1.9498 2.9413 0
M  V30 31 Pd -0.0399 5.1121 -1.8011 0
M  V30 32 Pb 0.6908 4.8756 -2.4343 0
M  V30 33 Pb -0.7104 4.8542 -2.5043 0
M  V30 34 Pb 0.6828 5.2909 -1.1293 0
M  V30 35 Pb -0.7481 5.3938 -1.1485 0
M  V30 36 Pd -5.0356 -0.0449 -4.4459 0
M  V30 37 Pb -5.4757 0.5871 -3.8223 0
M  V30 38 Pb -4.5761 -0.6733 -5.0810 0
M  V30 39 Pb -5.5779 -0.7598 -3.9956 0
M  V30 40 Pb -4.4866 0.7308 -4.7654 0
M  V30 41 Pd -3.9699 -2.3324 -0.1031 0
M  V30 42 Pb -2.9782 -2.4054 0.0471 0
M  V30 43 Pb -4.0818 -1.6798 0.6553 0
M  V30 44 Pb -3.9026 -3.0766 -0.7551 0
M  V30 45 Pb -4.9108 -2.2439 -0.4313 0
M  V30 46 Ag 0.8357 -0.9136 6.8853 0
M  V30 47 Fe 1.9833 -2.8186 6.0851 0
M  V30 48 Ag 2.9983 -4.5180 4.7940 0
M  V30 49 Ag 1.3624 1.4489 6.4957 0
M  V30 50 Fe 3.2781 1.8786 5.1602 0
M  V30 51 Ag 5.0654 2.1213 3.6150 0
M  V30 52 Ag -0.8015 -0.8763 5.3332 0
M  V30 53 Fe 0.1140 -2.7671 4.2059 0
M  V30 54 Ag 1.3993 -4.4991 3.1897 0
M  V30 55 Ag 4.2483 -2.0671 -2.4306 0
M  V30 56 Fe 3.7698 -3.4602 -0.5677 0
M  V30 57 Ag 3.2932 -4.7807 1.3478 0
M  V30 58 Ag -4.6597 2.9552 0.8576 0
M  V30 59 Fe -5.3170 2.0657 -1.2315 0
M  V30 60 Ag -5.7585 1.0527 -3.3208 0
M  V30 61 Ag -1.1456 4.6141 -3.0735 0
M  V30 62 Fe -2.6242 3.0061 -4.0197 0
M  V30 63 Ag -4.1037 1.3646 -4.9050 0
M  V30 64 Ag 4.3273 1.1760 -3.6592 0
M  V30 65 Fe 2.8734 3.0212 -3.3641 0
M  V30 66 Ag 1.2741 4.6932 -2.8608 0
M  V30 67 Ag 4.9067 3.2214 1.5274 0
M  V30 68 Fe 3.1013 4.3215 0.4346 0
M  V30 69 Ag 1.2809 5.3749 -0.6791 0
M  V30 70 Ag 4.7829 -4.2538 3.1412 0
M  V30 71 Fe 5.7223 -2.0896 2.8680 0
M  V30 72 Ag 6.3323 0.1810 2.5286 0
M  V30 73 Ba -3.9093 1.3853 2.5509 0
M  V30 74 Ga -4.0220 0.0762 1.8679 0
M  V30 75 Ba -4.1770 -1.2779 1.2896 0
M  V30 76 Ba 5.8165 0.0120 -2.0973 0
M  V30 77 Ga 6.0820 0.6512 -0.7911 0
M  V30 78 Ba 6.4292 1.2925 0.4947 0
M  V30 79 Ba -1.7207 -2.6989 -5.3971 0
M  V30 80 Ga -2.9692 -1.9181 -5.5230 0
M  V30 81 Ba -4.2099 -1.1160 -5.5703 0
M  V30 82 Ba -2.0084 -4.0175 -3.4474 0
M  V30 83 Ga -2.9659 -3.9014 -2.3516 0
M  V30 84 Ba -3.8597 -3.6492 -1.2252 0
M  V30 85 Ba -3.0100 4.5963 1.4834 0
M  V30 86 Ga -2.1212 5.0989 0.4146 0
M  V30 87 Ba -1.2481 5.6467 -0.6448 0
M  V30 88 Ba -2.3298 3.2113 3.4200 0
M  V30 89 Ga -1.5281 2.4609 4.4038 0
M  V30 90 Ba -0.6811 1.8640 5.4524 0
M  V30 91 Ba -6.0122 -1.1927 -3.5542 0
M  V30 92 Ga -5.8281 -1.7339 -2.1867 0
M  V30 93 Ba -5.5536 -2.2435 -0.8224 0
M  V30 94 Ba 3.0819 -0.6415 -4.1545 0
M  V30 95 Ga 1.7403 -1.2356 -4.2938 0
M  V30 96 Ba 0.3901 -1.7668 -4.5527 0
M  V30 97 Ba -0.3462 -2.8014 -2.2217 0
M  V30 98 Ga -1.2486 -2.6390 -1.0521 0
M  V30 99 Ba -2.2244 -2.4736 0.0566 0
M  V30 END ATOM
M  V30 BEGIN BOND
M  V30 1 1 1 2
M  V30 2 1 1 3
M  V30 3 1 1 4
M  V30 4 1 1 5
M  V30 5 1 6 7
M  V30 6 1 6 8
M  V30 7 1 6 9
M  V30 8 1 6 10
M  V30 9 1 11 12
M  V30 10 1 11 13
M  V30 11 1 11 14
M  V30 12 1 11 15
M  V30 13 1 16 17
M  V30 14 1 16 18
M  V30 15 1 16 19
M  V30 16 1 16 20
M  V30 17 1 21 22
M  V30 18 1 21 23
M  V30 19 1 21 24
M  V30 20 1 21 25
M  V30 21 1 26 27
M  V30 22 1 26 28
M  V30 23 1 26 29
M  V30 24 1 26 30
M  V30 25 1 31 32
M  V30 26 1 31 33
M  V30 27 1 31 34
M  V30 28 1 31 35
M  V30 29 1 36 37
M  V30 30 1 36 38
M  V30 31 1 36 39
M  V30 32 1 36 40
M  V30 33 1 41 42
M  V30 34 1 41 43
M  V30 35 1 41 44
M  V30 36 1 41 45
M  V30 37 1 46 47
M  V30 38 1 47 48
M  V30 39 1 49 50
M  V30 40 1 50 51
M  V30 41 1 52 53
M  V30 42 1 53 54
M  V30 43 1 55 56
M  V30 44 1 56 57
M  V30 45 1 58 59
M  V30 46 1 59 60
M  V30 47 1 61 62
M  V30 48 1 62 63
M  V30 49 1 64 65
M  V30 50 1 65 66
M  V30 51 1 67 68
M  V30 52 1 68 69
M  V30 53 1 70 71
M  V30 54 1 71 72
M  V30 55 1 73 74
M  V30 56 1 74 75
M  V30 57 1 76 77
M  V30 58 1 77 78
M  V30 59 1 79 80
M  V30 60 1 80 81
M  V30 61 1 82 83
M  V30 62 1 83 84
M  V30 63 1 85 86
M  V30 64 1 86 87
M  V30 65 1 88 89
M  V30 66 1 89 90
M  V30 67 1 91 92
M  V30 68 1 92 93
M  V30 69 1 94 95
M  V30 70 1 95 96
M  V30 71 1 97 98
M  V30 72 1 98 99
M  V30 73 1 2 58
M  V30 74 1 3 85
M  V30 75 1 4 73
M  V30 76 1 5 88
M  V30 77 1 7 90
M  V30 78 1 8 52
M  V30 79 1 9 46
M  V30 80 1 10 49
M  V30 81 1 12 76
M  V30 82 1 13 55
M  V30 83 1 14 94
M  V30 84 1 15 64
M  V30 85 1 17 57
M  V30 86 1 18 48
M  V30 87 1 19 70
M  V30 88 1 20 54
M  V30 89 1 22 96
M  V30 90 1 23 82
M  V30 91 1 24 79
M  V30 92 1 25 97
M  V30 93 1 27 67
M  V30 94 1 28 78
M  V30 95 1 29 72
M  V30 96 1 30 51
M  V30 97 1 32 66
M  V30 98 1 33 61
M  V30 99 1 34 69
M  V30 100 1 35 87
M  V30 101 1 37 60
M  V30 102 1 38 81
M  V30 103 1 39 91
M  V30 104 1 40 63
M  V30 105 1 42 99
M  V30 106 1 43 75
M  V30 107 1 44 84
M  V30 108 1 45 93
M  V30 END BOND
M  V30 END CTAB
M  END

$$$$
