
     RDKit          3D

  0  0  0  0  0  0  0  0  0  0999 V3000
M  V30 BEGIN CTAB
M  V30 COUNTS 99 108 0 0 0
M  V30 BEGIN ATOM
M  V30 1 Pd -4.9001 -1.1307 -4.5933 0
M  V30 2 Pb -4.8545 -1.7474 -5.3775 0
M  V30 3 Pb -4.6128 -1.8682 -3.9791 0
M  V30 4 Pb -5.1977 -0.3986 -5.2016 0
M  V30 5 Pb -4.6956 -0.4396 -3.8850 0
M  V30 6 Pd 7.9250 2.2455 4.5069 0
M  V30 7 Pb 7.8959 1.5626 3.7781 0
M  V30 8 Pb 7.6013 1.5697 5.1868 0
M  V30 9 Pb 7.8781 2.9534 5.2055 0
M  V30 10 Pb 8.0166 2.9328 3.7890 0
M  V30 11 Pd 3.7034 2.2048 -0.9989 0
M  V30 12 Pb 4.4412 1.5477 -0.8564 0
M  V30 13 Pb 3.0788 1.4782 -1.2817 0
M  V30 14 Pb 4.3482 2.9065 -0.6921 0
M  V30 15 Pb 2.9365 2.8458 -1.0024 0
M  V30 16 Pd -0.5966 1.9027 -4.3006 0
M  V30 17 Pb -0.1113 1.2700 -3.6981 0
M  V30 18 Pb -1.0915 2.5143 -4.9135 0
M  V30 19 Pb -1.3956 1.8896 -3.6799 0
M  V30 20 Pb 0.0778 1.7270 -5.0149 0
M  V30 21 Pd -0.5239 -2.5925 -5.6746 0
M  V30 22 Pb 0.1679 -2.5354 -4.9498 0
M  V30 23 Pb -0.0371 -1.8846 -6.1930 0
M  V30 24 Pb -1.2754 -2.6742 -6.3344 0
M  V30 25 Pb -1.0012 -3.2528 -5.1024 0
M  V30 26 Pd -3.1329 2.5199 2.0795 0
M  V30 27 Pb -2.4566 3.0344 1.5487 0
M  V30 28 Pb -3.6323 2.3004 1.2398 0
M  V30 29 Pb -2.6370 2.6749 2.9349 0
M  V30 30 Pb -3.8018 1.9851 2.5923 0
M  V30 31 Pd 2.9087 0.9599 6.7144 0
M  V30 32 Pb 3.8752 0.6499 6.7593 0
M  V30 33 Pb 3.1840 1.8071 7.1596 0
M  V30 34 Pb 2.6412 0.0881 6.2985 0
M  V30 35 Pb 1.9860 1.3303 6.6014 0
M  V30 36 Pd -4.8795 -2.0553 0.8200 0
M  V30 37 Pb -5.0048 -1.2267 0.2728 0
M  V30 38 Pb -4.6130 -2.5658 0.0007 0
M  V30 39 Pb -5.1340 -1.5332 1.6318 0
M  V30 40 Pb -4.6845 -2.8471 1.4009 0
M  V30 41 Pd -0.4049 -4.0561 1.4746 0
M  V30 42 Pb -0.9068 -4.3611 0.6696 0
M  V30 43 Pb -1.1797 -4.3454 2.0343 0
M  V30 44 Pb 0.3048 -3.7287 0.8470 0
M  V30 45 Pb 0.1125 -3.7726 2.2846 0
M  V30 46 Ag -5.2701 0.2133 -5.6150 0
M  V30 47 Fe -3.7093 1.9520 -5.8890 0
M  V30 48 Ag -1.5934 2.8314 -5.3577 0
M  V30 49 Ag 7.6579 3.4133 5.7429 0
M  V30 50 Fe 5.6237 3.3498 6.9284 0
M  V30 51 Ag 3.5220 2.4104 7.4288 0
M  V30 52 Ag 7.8104 1.1240 3.1773 0
M  V30 53 Fe 6.5037 0.9413 1.2051 0
M  V30 54 Ag 5.0018 1.1105 -0.6238 0
M  V30 55 Ag 7.9227 3.3916 3.2053 0
M  V30 56 Fe 6.4878 3.5498 1.3200 0
M  V30 57 Ag 4.8884 3.3547 -0.4248 0
M  V30 58 Ag 2.4646 -0.5871 6.0178 0
M  V30 59 Fe 1.4604 -2.0365 4.4232 0
M  V30 60 Ag 0.5025 -3.5918 2.9017 0
M  V30 61 Ag -1.3297 -3.7036 -4.6083 0
M  V30 62 Fe -1.3859 -4.2377 -2.3005 0
M  V30 63 Ag -1.2467 -4.5752 0.0407 0
M  V30 64 Ag 2.3282 3.2781 -0.9292 0
M  V30 65 Fe 0.1755 3.4083 0.0681 0
M  V30 66 Ag -1.9522 3.3978 1.1258 0
M  V30 67 Ag 0.6319 -2.5261 -4.3558 0
M  V30 68 Fe 0.8126 -2.9712 -2.0255 0
M  V30 69 Ag 0.7568 -3.4829 0.2974 0
M  V30 70 Ag -2.2962 2.7355 3.6015 0
M  V30 71 Fe -0.4876 2.2005 5.0469 0
M  V30 72 Ag 1.3226 1.6640 6.4897 0
M  V30 73 Ba 0.4953 1.4741 -5.5827 0
M  V30 74 Ga 0.4852 0.0936 -6.1084 0
M  V30 75 Ba 0.3565 -1.3235 -6.5064 0
M  V30 76 Ba -4.4030 -2.4289 -3.5241 0
M  V30 77 Ga -4.4087 -2.6767 -2.0678 0
M  V30 78 Ba -4.4058 -2.9437 -0.6149 0
M  V30 79 Ba 2.6040 0.9354 -1.4843 0
M  V30 80 Ga 1.4291 0.8610 -2.3709 0
M  V30 81 Ba 0.2541 0.7864 -3.2575 0
M  V30 82 Ba -4.6771 -2.1388 -5.9922 0
M  V30 83 Ga -3.3144 -2.5002 -6.4389 0
M  V30 84 Ba -1.8967 -2.7889 -6.7460 0
M  V30 85 Ba -4.2968 1.5551 2.9522 0
M  V30 86 Ga -4.8304 0.2211 2.6322 0
M  V30 87 Ba -5.3041 -1.1120 2.2262 0
M  V30 88 Ba -4.4629 0.1006 -3.4002 0
M  V30 89 Ga -3.2472 0.9641 -3.3203 0
M  V30 90 Ba -2.0255 1.8201 -3.2548 0
M  V30 91 Ba -4.0172 2.0868 0.6309 0
M  V30 92 Ga -4.5568 0.7731 0.2257 0
M  V30 93 Ba -5.0604 -0.5767 -0.0993 0
M  V30 94 Ba 7.2989 1.0755 5.6832 0
M  V30 95 Ga 5.9384 0.7756 6.2229 0
M  V30 96 Ba 4.6060 0.4248 6.8007 0
M  V30 97 Ba -4.4899 -3.4077 1.8615 0
M  V30 98 Ga -3.1781 -4.0118 2.1625 0
M  V30 99 Ba -1.8168 -4.5376 2.3777 0
M  V30 END ATOM
M  V30 BEGIN BOND
M  V30 1 1 1 2
M  V30 2 1 1 3
M  V30 3 1 1 4
M  V30 4 1 1 5
M  V30 5 1 6 7
M  V30 6 1 6 8
M  V30 7 1 6 9
M  V30 8 1 6 10
M  V30 9 1 11 12
M  V30 10 1 11 13
M  V30 11 1 11 14
M  V30 12 1 11 15
M  V30 13 1 16 17
M  V30 14 1 16 18
M  V30 15 1 16 19
M  V30 16 1 16 20
M  V30 17 1 21 22
M  V30 18 1 21 23
M  V30 19 1 21 24
M  V30 20 1 21 25
M  V30 21 1 26 27
M  V30 22 1 26 28
M  V30 23 1 26 29
M  V30 24 1 26 30
M  V30 25 1 31 32
M  V30 26 1 31 33
M  V30 27 1 31 34
M  V30 28 1 31 35
M  V30 29 1 36 37
M  V30 30 1 36 38
M  V30 31 1 36 39
M  V30 32 1 36 40
M  V30 33 1 41 42
M  V30 34 1 41 43
M  V30 35 1 41 44
M  V30 36 1 41 45
M  V30 37 1 46 47
M  V30 38 1 47 48
M  V30 39 1 49 50
M  V30 40 1 50 51
M  V30 41 1 52 53
M  V30 42 1 53 54
M  V30 43 1 55 56
M  V30 44 1 56 57
M  V30 45 1 58 59
M  V30 46 1 59 60
M  V30 47 1 61 62
M  V30 48 1 62 63
M  V30 49 1 64 65
M  V30 50 1 65 66
M  V30 51 1 67 68
M  V30 52 1 68 69
M  V30 53 1 70 71
M  V30 54 1 71 72
M  V30 55 1 73 74
M  V30 56 1 74 75
M  V30 57 1 76 77
M  V30 58 1 77 78
M  V30 59 1 79 80
M  V30 60 1 80 81
M  V30 61 1 82 83
M  V30 62 1 83 84
M  V30 63 1 85 86
M  V30 64 1 86 87
M  V30 65 1 88 89
M  V30 66 1 89 90
M  V30 67 1 91 92
M  V30 68 1 92 93
M  V30 69 1 94 95
M  V30 70 1 95 96
M  V30 71 1 97 98
M  V30 72 1 98 99
M  V30 73 1 2 82
M  V30 74 1 3 76
M  V30 75 1 4 46
M  V30 76 1 5 88
M  V30 77 1 7 52
M  V30 78 1 8 94
M  V30 79 1 9 49
M  V30 80 1 10 55
M  V30 81 1 12 54
M  V30 82 1 13 79
M  V30 83 1 14 57
M  V30 84 1 15 64
M  V30 85 1 17 81
M  V30 86 1 18 48
M  V30 87 1 19 90
M  V30 88 1 20 73
M  V30 89 1 22 67
M  V30 90 1 23 75
M  V30 91 1 24 84
M  V30 92 1 25 61
M  V30 93 1 27 66
M  V30 94 1 28 91
M  V30 95 1 29 70
M  V30 96 1 30 85
M  V30 97 1 32 96
M  V30 98 1 33 51
M  V30 99 1 34 58
M  V30 100 1 35 72
M  V30 101 1 37 93
M  V30 102 1 38 78
M  V30 103 1 39 87
M  V30 104 1 40 97
M  V30 105 1 42 63
M  V30 106 1 43 99
M  V30 107 1 44 69
M  V30 108 1 45 60
M  V30 END BOND
M  V30 END CTAB
M  END

$$$$
