
     RDKit          3D

  0  0  0  0  0  0  0  0  0  0999 V3000
M  V30 BEGIN CTAB
M  V30 COUNTS 99 108 0 0 0
M  V30 BEGIN ATOM
M  V30 1 Pd 3.2781 -5.1626 -0.2782 0
M  V30 2 Pb 2.5743 -5.6794 0.2060 0
M  V30 3 Pb 3.9395 -4.6254 -0.8005 0
M  V30 4 Pb 3.5340 -5.9597 -0.8265 0
M  V30 5 Pb 2.9754 -4.3548 0.2301 0
M  V30 6 Pd 3.0870 -5.0513 -5.1004 0
M  V30 7 Pb 2.3257 -5.5427 -5.5231 0
M  V30 8 Pb 3.4070 -5.8842 -4.6506 0
M  V30 9 Pb 3.8001 -4.5459 -4.6164 0
M  V30 10 Pb 2.7067 -4.2004 -5.4582 0
M  V30 11 Pd -2.6868 3.7585 -0.6046 0
M  V30 12 Pb -3.3854 3.8460 0.1083 0
M  V30 13 Pb -2.0185 3.5802 -1.3279 0
M  V30 14 Pb -2.2498 4.6578 -0.4735 0
M  V30 15 Pb -3.1461 2.8910 -0.7853 0
M  V30 16 Pd -0.1010 8.0867 2.5468 0
M  V30 17 Pb 0.0674 8.4277 3.4672 0
M  V30 18 Pb -1.0318 7.8807 2.8178 0
M  V30 19 Pb 0.8995 8.0777 2.3850 0
M  V30 20 Pb -0.3065 7.7357 1.6288 0
M  V30 21 Pd -3.6074 -3.7341 0.7535 0
M  V30 22 Pb -3.4579 -3.2392 1.6143 0
M  V30 23 Pb -3.7701 -4.2556 -0.0865 0
M  V30 24 Pb -4.0505 -2.9386 0.3489 0
M  V30 25 Pb -3.0648 -4.4971 1.0992 0
M  V30 26 Pd -1.6422 -3.8288 -4.2866 0
M  V30 27 Pb -1.3642 -4.5835 -4.8816 0
M  V30 28 Pb -1.8831 -3.0957 -3.6535 0
M  V30 29 Pb -0.9684 -3.2515 -4.7493 0
M  V30 30 Pb -2.3155 -4.4021 -3.8212 0
M  V30 31 Pd -2.8123 1.3622 3.7762 0
M  V30 32 Pb -2.9050 0.3636 3.7096 0
M  V30 33 Pb -1.9285 1.2410 4.2394 0
M  V30 34 Pb -3.6464 1.5821 3.2733 0
M  V30 35 Pb -2.8035 2.3517 3.8922 0
M  V30 36 Pd 0.9247 -0.0237 -1.0876 0
M  V30 37 Pb 1.7809 0.4406 -0.8785 0
M  V30 38 Pb 0.6829 0.7110 -1.7216 0
M  V30 39 Pb 1.1684 -0.7159 -0.4036 0
M  V30 40 Pb 0.0286 -0.4322 -1.2591 0
M  V30 41 Pd 3.7365 4.5842 4.1642 0
M  V30 42 Pb 3.7946 5.4676 3.6692 0
M  V30 43 Pb 3.5891 5.0779 5.0164 0
M  V30 44 Pb 3.4363 3.7316 4.5939 0
M  V30 45 Pb 3.9198 4.0944 3.3145 0
M  V30 46 Ag 2.3906 0.8168 -0.6703 0
M  V30 47 Fe 3.2918 2.2725 0.9701 0
M  V30 48 Ag 4.0603 3.7239 2.6805 0
M  V30 49 Ag -1.2452 1.1732 4.5536 0
M  V30 50 Fe 0.9501 2.0636 4.7802 0
M  V30 51 Ag 3.0763 3.1286 4.8626 0
M  V30 52 Ag -3.5507 2.2689 -0.8829 0
M  V30 53 Fe -3.9589 -0.0281 -0.4536 0
M  V30 54 Ag -4.3122 -2.3279 0.0084 0
M  V30 55 Ag 1.9929 -5.9916 0.5584 0
M  V30 56 Fe -0.3100 -5.6621 1.0228 0
M  V30 57 Ag -2.5811 -5.0330 1.2943 0
M  V30 58 Ag 0.2800 8.5426 4.1675 0
M  V30 59 Fe 1.8405 7.3117 5.4246 0
M  V30 60 Ag 3.3899 5.5472 5.5538 0
M  V30 61 Ag -1.6480 7.5643 3.0815 0
M  V30 62 Fe -2.3884 5.3604 3.5350 0
M  V30 63 Ag -2.9311 3.0878 3.9281 0
M  V30 64 Ba -1.8852 5.3221 -0.5047 0
M  V30 65 Ga -1.2047 6.3721 0.2905 0
M  V30 66 Ba -0.4951 7.5026 0.9370 0
M  V30 67 Ba 2.3576 -3.5743 -5.6726 0
M  V30 68 Ga 0.9651 -3.1603 -5.4226 0
M  V30 69 Ba -0.4433 -2.8557 -5.1113 0
M  V30 70 Ba 4.4056 -4.2484 -1.2498 0
M  V30 71 Ga 4.4169 -4.1708 -2.7212 0
M  V30 72 Ba 4.3017 -4.1890 -4.1899 0
M  V30 73 Ba 1.6604 8.0216 2.3263 0
M  V30 74 Ga 2.7067 7.0658 2.8062 0
M  V30 75 Ba 3.7703 6.1240 3.2757 0
M  V30 76 Ba 3.7181 -6.5197 -1.2913 0
M  V30 77 Ga 3.6986 -6.5665 -2.7653 0
M  V30 78 Ba 3.6273 -6.4675 -4.2351 0
M  V30 79 Ba -3.8949 -4.6721 -0.7002 0
M  V30 80 Ga -3.3626 -4.7382 -2.0753 0
M  V30 81 Ba -2.8292 -4.8020 -3.4501 0
M  V30 82 Ba 2.7020 -3.7771 0.6252 0
M  V30 83 Ga 2.0462 -2.4822 0.3453 0
M  V30 84 Ba 1.3831 -1.1752 0.1535 0
M  V30 85 Ba 1.7129 -5.8688 -5.8066 0
M  V30 86 Ga 0.2882 -5.5481 -5.5985 0
M  V30 87 Ba -1.0995 -5.1355 -5.3154 0
M  V30 88 Ba -3.9612 3.7423 0.5842 0
M  V30 89 Ga -4.1355 2.8496 1.7525 0
M  V30 90 Ba -4.2040 1.9357 2.9152 0
M  V30 91 Ba -2.0719 -2.5831 -3.1421 0
M  V30 92 Ga -1.3486 -1.6340 -2.2771 0
M  V30 93 Ba -0.6697 -0.6712 -1.3915 0
M  V30 94 Ba -3.3486 -2.9257 2.2911 0
M  V30 95 Ga -3.1609 -1.6104 2.9436 0
M  V30 96 Ba -2.9613 -0.3879 3.7538 0
M  V30 97 Ba -1.5203 3.4221 -1.8671 0
M  V30 98 Ga -0.5099 2.3604 -2.0387 0
M  V30 99 Ba 0.4880 1.2810 -2.1686 0
M  V30 END ATOM
M  V30 BEGIN BOND
M  V30 1 1 1 2
M  V30 2 1 1 3
M  V30 3 1 1 4
M  V30 4 1 1 5
M  V30 5 1 6 7
M  V30 6 1 6 8
M  V30 7 1 6 9
M  V30 8 1 6 10
M  V30 9 1 11 12
M  V30 10 1 11 13
M  V30 11 1 11 14
M  V30 12 1 11 15
M  V30 13 1 16 17
M  V30 14 1 16 18
M  V30 15 1 16 19
M  V30 16 1 16 20
M  V30 17 1 21 22
M  V30 18 1 21 23
M  V30 19 1 21 24
M  V30 20 1 21 25
M  V30 21 1 26 27
M  V30 22 1 26 28
M  V30 23 1 26 29
M  V30 24 1 26 30
M  V30 25 1 31 32
M  V30 26 1 31 33
M  V30 27 1 31 34
M  V30 28 1 31 35
M  V30 29 1 36 37
M  V30 30 1 36 38
M  V30 31 1 36 39
M  V30 32 1 36 40
M  V30 33 1 41 42
M  V30 34 1 41 43
M  V30 35 1 41 44
M  V30 36 1 41 45
M  V30 37 1 46 47
M  V30 38 1 47 48
M  V30 39 1 49 50
M  V30 40 1 50 51
M  V30 41 1 52 53
M  V30 42 1 53 54
M  V30 43 1 55 56
M  V30 44 1 56 57
M  V30 45 1 58 59
M  V30 46 1 59 60
M  V30 47 1 61 62
M  V30 48 1 62 63
M  V30 49 1 64 65
M  V30 50 1 65 66
M  V30 51 1 67 68
M  V30 52 1 68 69
M  V30 53 1 70 71
M  V30 54 1 71 72
M  V30 55 1 73 74
M  V30 56 1 74 75
M  V30 57 1 76 77
M  V30 58 1 77 78
M  V30 59 1 79 80
M  V30 60 1 80 81
M  V30 61 1 82 83
M  V30 62 1 83 84
M  V30 63 1 85 86
M  V30 64 1 86 87
M  V30 65 1 88 89
M  V30 66 1 89 90
M  V30 67 1 91 92
M  V30 68 1 92 93
M  V30 69 1 94 95
M  V30 70 1 95 96
M  V30 71 1 97 98
M  V30 72 1 98 99
M  V30 73 1 2 55
M  V30 74 1 3 70
M  V30 75 1 4 76
M  V30 76 1 5 82
M  V30 77 1 7 85
M  V30 78 1 8 78
M  V30 79 1 9 72
M  V30 80 1 10 67
M  V30 81 1 12 88
M  V30 82 1 13 97
M  V30 83 1 14 64
M  V30 84 1 15 52
M  V30 85 1 17 58
M  V30 86 1 18 61
M  V30 87 1 19 73
M  V30 88 1 20 66
M  V30 89 1 22 94
M  V30 90 1 23 79
M  V30 91 1 24 54
M  V30 92 1 25 57
M  V30 93 1 27 87
M  V30 94 1 28 91
M  V30 95 1 29 69
M  V30 96 1 30 81
M  V30 97 1 32 96
M  V30 98 1 33 49
M  V30 99 1 34 90
M  V30 100 1 35 63
M  V30 101 1 37 46
M  V30 102 1 38 99
M  V30 103 1 39 84
M  V30 104 1 40 93
M  V30 105 1 42 75
M  V30 106 1 43 60
M  V30 107 1 44 51
M  V30 108 1 45 48
M  V30 END BOND
M  V30 END CTAB
M  END

$$$$
