
     RDKit          3D

  0  0  0  0  0  0  0  0  0  0999 V3000
M  V30 BEGIN CTAB
M  V30 COUNTS 99 108 0 0 0
M  V30 BEGIN ATOM
M  V30 1 Pd -3.0824 -2.1283 -4.9554 0
M  V30 2 Pb -3.1012 -1.2931 -5.4977 0
M  V30 3 Pb -3.0487 -2.9838 -4.4316 0
M  V30 4 Pb -2.9074 -2.6612 -5.7795 0
M  V30 5 Pb -3.1739 -1.5441 -4.1459 0
M  V30 6 Pd 0.6206 -5.2938 -5.1372 0
M  V30 7 Pb 1.1648 -5.5575 -4.3472 0
M  V30 8 Pb 0.0669 -5.0514 -5.9316 0
M  V30 9 Pb -0.2158 -5.5927 -4.6795 0
M  V30 10 Pb 1.4209 -4.7928 -5.5079 0
M  V30 11 Pd -4.2883 1.2052 0.9643 0
M  V30 12 Pb -4.2394 2.1733 1.1931 0
M  V30 13 Pb -4.2736 0.2236 0.7635 0
M  V30 14 Pb -4.2379 1.0010 1.9427 0
M  V30 15 Pb -4.3117 1.4625 -0.0044 0
M  V30 16 Pd -0.0527 1.2988 7.4914 0
M  V30 17 Pb 0.0166 0.3039 7.6024 0
M  V30 18 Pb -0.0661 2.2938 7.3617 0
M  V30 19 Pb 0.8152 1.3840 7.9783 0
M  V30 20 Pb -0.9205 1.1823 7.0046 0
M  V30 21 Pd -1.0610 2.5358 -3.7607 0
M  V30 22 Pb -0.5294 2.9269 -3.0048 0
M  V30 23 Pb -0.2246 2.4849 -4.3112 0
M  V30 24 Pb -1.9316 2.5416 -3.2579 0
M  V30 25 Pb -1.5696 2.1992 -4.5512 0
M  V30 26 Pd 3.4048 -0.5413 -3.8527 0
M  V30 27 Pb 3.7610 -1.2023 -3.2000 0
M  V30 28 Pb 3.2736 0.1104 -3.1106 0
M  V30 29 Pb 3.4194 -1.2646 -4.5667 0
M  V30 30 Pb 3.0392 0.1436 -4.4835 0
M  V30 31 Pd 1.1501 4.9258 3.4781 0
M  V30 32 Pb 1.3130 4.8464 2.4935 0
M  V30 33 Pb 2.0647 4.5589 3.6485 0
M  V30 34 Pb 0.2218 5.2276 3.2804 0
M  V30 35 Pb 0.9373 4.9566 4.4579 0
M  V30 36 Pd -0.3444 -0.9872 -0.3303 0
M  V30 37 Pb 0.3237 -1.4931 0.2165 0
M  V30 38 Pb -1.0858 -1.6171 -0.1131 0
M  V30 39 Pb -1.0389 -0.5107 -0.8694 0
M  V30 40 Pb 0.3563 -0.2946 -0.5135 0
M  V30 41 Pd 3.7784 -1.1398 6.0757 0
M  V30 42 Pb 3.8568 -0.5972 6.9085 0
M  V30 43 Pb 3.0845 -1.6965 6.5285 0
M  V30 44 Pb 4.3250 -0.4485 5.6103 0
M  V30 45 Pb 3.6312 -1.6368 5.2210 0
M  V30 46 Ag -4.1873 0.8911 2.6838 0
M  V30 47 Fe -2.8777 0.9711 4.6654 0
M  V30 48 Ag -1.5692 1.0518 6.6477 0
M  V30 49 Ag 0.8395 -1.8551 0.6245 0
M  V30 50 Fe 2.1761 -1.9604 2.5852 0
M  V30 51 Ag 3.4719 -1.9834 4.5756 0
M  V30 52 Ag 2.7289 4.2233 3.7412 0
M  V30 53 Fe 3.8286 2.2513 4.4717 0
M  V30 54 Ag 4.6070 0.1654 5.2922 0
M  V30 55 Ag 1.6299 -5.6095 -3.7736 0
M  V30 56 Fe 3.0412 -3.9694 -2.8489 0
M  V30 57 Ag 3.9198 -1.7877 -2.7754 0
M  V30 58 Ag -4.1188 2.8807 1.3947 0
M  V30 59 Fe -2.4176 4.2889 2.2508 0
M  V30 60 Ag -0.4873 5.3680 3.0991 0
M  V30 61 Ag -0.0718 3.2494 -2.5003 0
M  V30 62 Fe 0.6227 3.9882 -0.3495 0
M  V30 63 Ag 1.4141 4.7673 1.7532 0
M  V30 64 Ba 2.0058 -4.3709 -5.7642 0
M  V30 65 Ga 2.6944 -3.0953 -5.3944 0
M  V30 66 Ba 3.4297 -1.8297 -5.0849 0
M  V30 67 Ba -3.0038 -3.6619 -4.1050 0
M  V30 68 Ga -1.9704 -4.7174 -4.1719 0
M  V30 69 Ba -0.8645 -5.6881 -4.3153 0
M  V30 70 Ba 1.4808 1.3950 8.3203 0
M  V30 71 Ga 2.7075 0.6563 7.9840 0
M  V30 72 Ba 3.8405 -0.1513 7.5074 0
M  V30 73 Ba -2.7006 -3.0595 -6.3761 0
M  V30 74 Ga -1.5633 -3.9819 -6.5087 0
M  V30 75 Ba -0.3946 -4.8742 -6.4929 0
M  V30 76 Ba 0.3758 2.4246 -4.7611 0
M  V30 77 Ga 1.5701 1.5584 -4.8372 0
M  V30 78 Ba 2.7657 0.6939 -4.9147 0
M  V30 79 Ba -3.2074 -1.0237 -3.6025 0
M  V30 80 Ga -2.4097 -0.6316 -2.4216 0
M  V30 81 Ba -1.6277 -0.2232 -1.2358 0
M  V30 82 Ba 3.0951 0.5589 -2.5414 0
M  V30 83 Ga 2.0009 0.4237 -1.5630 0
M  V30 84 Ba 0.8869 0.2284 -0.6174 0
M  V30 85 Ba -4.3487 1.7274 -0.7081 0
M  V30 86 Ga -3.4335 2.0980 -1.8113 0
M  V30 87 Ba -2.6371 2.5105 -2.9890 0
M  V30 88 Ba -3.0983 -0.6495 -5.8749 0
M  V30 89 Ga -2.5331 0.6662 -5.5397 0
M  V30 90 Ba -1.9476 1.9580 -5.1503 0
M  V30 91 Ba 0.1247 -0.4380 7.6767 0
M  V30 92 Ga 1.2718 -1.2891 7.3001 0
M  V30 93 Ba 2.4898 -2.0024 6.8656 0
M  V30 94 Ba -0.0277 3.0425 7.2853 0
M  V30 95 Ga 0.3528 3.9977 6.2212 0
M  V30 96 Ba 0.7268 4.9813 5.1808 0
M  V30 97 Ba -4.2030 -0.5180 0.6596 0
M  V30 98 Ga -3.0115 -1.3281 0.3447 0
M  V30 99 Ba -1.7273 -1.9759 0.0208 0
M  V30 END ATOM
M  V30 BEGIN BOND
M  V30 1 1 1 2
M  V30 2 1 1 3
M  V30 3 1 1 4
M  V30 4 1 1 5
M  V30 5 1 6 7
M  V30 6 1 6 8
M  V30 7 1 6 9
M  V30 8 1 6 10
M  V30 9 1 11 12
M  V30 10 1 11 13
M  V30 11 1 11 14
M  V30 12 1 11 15
M  V30 13 1 16 17
M  V30 14 1 16 18
M  V30 15 1 16 19
M  V30 16 1 16 20
M  V30 17 1 21 22
M  V30 18 1 21 23
M  V30 19 1 21 24
M  V30 20 1 21 25
M  V30 21 1 26 27
M  V30 22 1 26 28
M  V30 23 1 26 29
M  V30 24 1 26 30
M  V30 25 1 31 32
M  V30 26 1 31 33
M  V30 27 1 31 34
M  V30 28 1 31 35
M  V30 29 1 36 37
M  V30 30 1 36 38
M  V30 31 1 36 39
M  V30 32 1 36 40
M  V30 33 1 41 42
M  V30 34 1 41 43
M  V30 35 1 41 44
M  V30 36 1 41 45
M  V30 37 1 46 47
M  V30 38 1 47 48
M  V30 39 1 49 50
M  V30 40 1 50 51
M  V30 41 1 52 53
M  V30 42 1 53 54
M  V30 43 1 55 56
M  V30 44 1 56 57
M  V30 45 1 58 59
M  V30 46 1 59 60
M  V30 47 1 61 62
M  V30 48 1 62 63
M  V30 49 1 64 65
M  V30 50 1 65 66
M  V30 51 1 67 68
M  V30 52 1 68 69
M  V30 53 1 70 71
M  V30 54 1 71 72
M  V30 55 1 73 74
M  V30 56 1 74 75
M  V30 57 1 76 77
M  V30 58 1 77 78
M  V30 59 1 79 80
M  V30 60 1 80 81
M  V30 61 1 82 83
M  V30 62 1 83 84
M  V30 63 1 85 86
M  V30 64 1 86 87
M  V30 65 1 88 89
M  V30 66 1 89 90
M  V30 67 1 91 92
M  V30 68 1 92 93
M  V30 69 1 94 95
M  V30 70 1 95 96
M  V30 71 1 97 98
M  V30 72 1 98 99
M  V30 73 1 2 88
M  V30 74 1 3 67
M  V30 75 1 4 73
M  V30 76 1 5 79
M  V30 77 1 7 55
M  V30 78 1 8 75
M  V30 79 1 9 69
M  V30 80 1 10 64
M  V30 81 1 12 58
M  V30 82 1 13 97
M  V30 83 1 14 46
M  V30 84 1 15 85
M  V30 85 1 17 91
M  V30 86 1 18 94
M  V30 87 1 19 70
M  V30 88 1 20 48
M  V30 89 1 22 61
M  V30 90 1 23 76
M  V30 91 1 24 87
M  V30 92 1 25 90
M  V30 93 1 27 57
M  V30 94 1 28 82
M  V30 95 1 29 66
M  V30 96 1 30 78
M  V30 97 1 32 63
M  V30 98 1 33 52
M  V30 99 1 34 60
M  V30 100 1 35 96
M  V30 101 1 37 49
M  V30 102 1 38 99
M  V30 103 1 39 81
M  V30 104 1 40 84
M  V30 105 1 42 72
M  V30 106 1 43 93
M  V30 107 1 44 54
M  V30 108 1 45 51
M  V30 END BOND
M  V30 END CTAB
M  END

$$$$
