
     RDKit          3D

  0  0  0  0  0  0  0  0  0  0999 V3000
M  V30 BEGIN CTAB
M  V30 COUNTS 99 108 0 0 0
M  V30 BEGIN ATOM
M  V30 1 Pd 7.5705 -3.7967 -1.9107 0
M  V30 2 Pb 6.7347 -3.8100 -2.4451 0
M  V30 3 Pb 7.1076 -4.3020 -1.1798 0
M  V30 4 Pb 7.9987 -3.2395 -2.6251 0
M  V30 5 Pb 8.3687 -3.6273 -1.3392 0
M  V30 6 Pd -8.1182 0.5183 -0.4572 0
M  V30 7 Pb -8.3532 1.0969 0.3245 0
M  V30 8 Pb -8.0862 -0.2896 0.1329 0
M  V30 9 Pb -8.0910 1.3446 -1.0304 0
M  V30 10 Pb -7.7959 0.0072 -1.2520 0
M  V30 11 Pd 8.2170 0.7574 -1.2314 0
M  V30 12 Pb 7.8726 0.9000 -0.3070 0
M  V30 13 Pb 7.5751 1.4204 -1.6319 0
M  V30 14 Pb 8.5077 0.4653 -2.1397 0
M  V30 15 Pb 8.8433 0.0766 -0.8456 0
M  V30 16 Pd 3.2857 -3.1033 1.8410 0
M  V30 17 Pb 3.9835 -3.7163 1.4546 0
M  V30 18 Pb 3.9840 -2.5291 2.2631 0
M  V30 19 Pb 2.5820 -3.5600 1.2919 0
M  V30 20 Pb 2.6071 -2.5461 2.3272 0
M  V30 21 Pd -3.6551 -2.0314 4.6436 0
M  V30 22 Pb -4.1489 -1.2556 5.0174 0
M  V30 23 Pb -3.1197 -2.7494 4.2241 0
M  V30 24 Pb -4.5221 -2.4009 4.3125 0
M  V30 25 Pb -2.7670 -1.6087 4.8147 0
M  V30 26 Pd -4.7639 2.8803 2.5000 0
M  V30 27 Pb -5.7536 3.0298 2.5046 0
M  V30 28 Pb -3.7854 2.6441 2.4573 0
M  V30 29 Pb -4.9020 2.2805 3.2865 0
M  V30 30 Pb -4.6444 3.6212 1.8342 0
M  V30 31 Pd -4.3439 4.0956 -2.8124 0
M  V30 32 Pb -5.3309 3.9172 -2.7142 0
M  V30 33 Pb -3.3677 4.2983 -2.8872 0
M  V30 34 Pb -4.3777 4.7124 -2.0323 0
M  V30 35 Pb -4.3197 3.3650 -3.4914 0
M  V30 36 Pd -0.9042 -1.0501 0.3894 0
M  V30 37 Pb -0.6037 -1.8780 -0.0801 0
M  V30 38 Pb -1.1221 -0.2206 0.9262 0
M  V30 39 Pb -0.8795 -0.5210 -0.4599 0
M  V30 40 Pb -0.9425 -1.6718 1.1694 0
M  V30 41 Pd 2.7076 1.6554 -2.9319 0
M  V30 42 Pb 3.0147 0.7250 -3.1113 0
M  V30 43 Pb 3.6480 2.0136 -2.8941 0
M  V30 44 Pb 2.3225 2.5685 -2.8361 0
M  V30 45 Pb 1.7607 1.3333 -2.9423 0
M  V30 46 Ag -8.0181 -0.8681 0.6068 0
M  V30 47 Fe -6.6810 -1.8391 2.3127 0
M  V30 48 Ag -5.1680 -2.5888 3.9827 0
M  V30 49 Ag 6.1001 -3.6793 -2.8059 0
M  V30 50 Fe 4.5764 -1.8919 -3.1075 0
M  V30 51 Ag 3.1848 0.0171 -3.2774 0
M  V30 52 Ag 7.6041 0.8437 0.3876 0
M  V30 53 Fe 6.0772 -0.4896 1.6183 0
M  V30 54 Ag 4.4711 -2.0056 2.4822 0
M  V30 55 Ag -2.6428 4.4917 -2.8835 0
M  V30 56 Fe -0.3384 3.9261 -2.8453 0
M  V30 57 Ag 1.9190 3.1955 -2.8179 0
M  V30 58 Ag -7.4550 -0.2001 -1.8821 0
M  V30 59 Fe -5.8748 0.9467 -3.2170 0
M  V30 60 Ag -4.4425 2.7209 -3.8447 0
M  V30 61 Ag 2.1523 -2.1391 2.7701 0
M  V30 62 Fe 0.0642 -1.6985 3.8183 0
M  V30 63 Ag -2.0677 -1.3395 4.8075 0
M  V30 64 Ba -2.6106 -3.1699 3.8914 0
M  V30 65 Ga -1.7733 -2.7511 2.7600 0
M  V30 66 Ba -0.9649 -2.2589 1.6366 0
M  V30 67 Ba 8.9364 -3.3626 -0.9334 0
M  V30 68 Ga 9.1917 -1.9310 -0.6959 0
M  V30 69 Ba 9.2853 -0.4654 -0.5687 0
M  V30 70 Ba 2.0749 -3.8357 0.8080 0
M  V30 71 Ga 0.8602 -3.2421 0.2125 0
M  V30 72 Ba -0.3335 -2.5405 -0.3019 0
M  V30 73 Ba -8.0695 1.9673 -1.4586 0
M  V30 74 Ga -7.0412 2.8637 -2.0426 0
M  V30 75 Ba -6.0787 3.8082 -2.6615 0
M  V30 76 Ba -4.5767 4.2436 1.4141 0
M  V30 77 Ga -4.4843 4.6673 0.0043 0
M  V30 78 Ba -4.3891 5.1077 -1.4004 0
M  V30 79 Ba -8.4714 1.5814 0.8855 0
M  V30 80 Ga -7.5233 2.3461 1.7203 0
M  V30 81 Ba -6.5039 3.0676 2.5080 0
M  V30 82 Ba 8.3016 -2.7719 -3.1301 0
M  V30 83 Ga 8.5379 -1.3188 -3.0435 0
M  V30 84 Ba 8.6981 0.1222 -2.7759 0
M  V30 85 Ba -0.8816 -0.1765 -1.1273 0
M  V30 86 Ga 0.0961 0.4804 -2.0169 0
M  V30 87 Ba 1.0340 1.1459 -2.9423 0
M  V30 88 Ba 7.1225 1.9288 -1.9605 0
M  V30 89 Ga 5.7110 2.0749 -2.3912 0
M  V30 90 Ba 4.3308 2.3387 -2.8647 0
M  V30 91 Ba -3.0512 2.4594 2.4320 0
M  V30 92 Ga -2.1811 1.4017 1.8533 0
M  V30 93 Ba -1.1953 0.4156 1.3379 0
M  V30 94 Ba -4.5209 -0.6551 5.2468 0
M  V30 95 Ga -4.7808 0.6296 4.5809 0
M  V30 96 Ba -5.0493 1.9181 3.9261 0
M  V30 97 Ba 6.7413 -4.6770 -0.6408 0
M  V30 98 Ga 5.6118 -4.4062 0.2769 0
M  V30 99 Ba 4.4933 -4.2273 1.2297 0
M  V30 END ATOM
M  V30 BEGIN BOND
M  V30 1 1 1 2
M  V30 2 1 1 3
M  V30 3 1 1 4
M  V30 4 1 1 5
M  V30 5 1 6 7
M  V30 6 1 6 8
M  V30 7 1 6 9
M  V30 8 1 6 10
M  V30 9 1 11 12
M  V30 10 1 11 13
M  V30 11 1 11 14
M  V30 12 1 11 15
M  V30 13 1 16 17
M  V30 14 1 16 18
M  V30 15 1 16 19
M  V30 16 1 16 20
M  V30 17 1 21 22
M  V30 18 1 21 23
M  V30 19 1 21 24
M  V30 20 1 21 25
M  V30 21 1 26 27
M  V30 22 1 26 28
M  V30 23 1 26 29
M  V30 24 1 26 30
M  V30 25 1 31 32
M  V30 26 1 31 33
M  V30 27 1 31 34
M  V30 28 1 31 35
M  V30 29 1 36 37
M  V30 30 1 36 38
M  V30 31 1 36 39
M  V30 32 1 36 40
M  V30 33 1 41 42
M  V30 34 1 41 43
M  V30 35 1 41 44
M  V30 36 1 41 45
M  V30 37 1 46 47
M  V30 38 1 47 48
M  V30 39 1 49 50
M  V30 40 1 50 51
M  V30 41 1 52 53
M  V30 42 1 53 54
M  V30 43 1 55 56
M  V30 44 1 56 57
M  V30 45 1 58 59
M  V30 46 1 59 60
M  V30 47 1 61 62
M  V30 48 1 62 63
M  V30 49 1 64 65
M  V30 50 1 65 66
M  V30 51 1 67 68
M  V30 52 1 68 69
M  V30 53 1 70 71
M  V30 54 1 71 72
M  V30 55 1 73 74
M  V30 56 1 74 75
M  V30 57 1 76 77
M  V30 58 1 77 78
M  V30 59 1 79 80
M  V30 60 1 80 81
M  V30 61 1 82 83
M  V30 62 1 83 84
M  V30 63 1 85 86
M  V30 64 1 86 87
M  V30 65 1 88 89
M  V30 66 1 89 90
M  V30 67 1 91 92
M  V30 68 1 92 93
M  V30 69 1 94 95
M  V30 70 1 95 96
M  V30 71 1 97 98
M  V30 72 1 98 99
M  V30 73 1 2 49
M  V30 74 1 3 97
M  V30 75 1 4 82
M  V30 76 1 5 67
M  V30 77 1 7 79
M  V30 78 1 8 46
M  V30 79 1 9 73
M  V30 80 1 10 58
M  V30 81 1 12 52
M  V30 82 1 13 88
M  V30 83 1 14 84
M  V30 84 1 15 69
M  V30 85 1 17 99
M  V30 86 1 18 54
M  V30 87 1 19 70
M  V30 88 1 20 61
M  V30 89 1 22 94
M  V30 90 1 23 64
M  V30 91 1 24 48
M  V30 92 1 25 63
M  V30 93 1 27 81
M  V30 94 1 28 91
M  V30 95 1 29 96
M  V30 96 1 30 76
M  V30 97 1 32 75
M  V30 98 1 33 55
M  V30 99 1 34 78
M  V30 100 1 35 60
M  V30 101 1 37 72
M  V30 102 1 38 93
M  V30 103 1 39 85
M  V30 104 1 40 66
M  V30 105 1 42 51
M  V30 106 1 43 90
M  V30 107 1 44 57
M  V30 108 1 45 87
M  V30 END BOND
M  V30 END CTAB
M  END

$$$$
