
     RDKit          3D

  0  0  0  0  0  0  0  0  0  0999 V3000
M  V30 BEGIN CTAB
M  V30 COUNTS 99 108 0 0 0
M  V30 BEGIN ATOM
M  V30 1 Pd -3.8493 -0.2677 5.0383 0
M  V30 2 Pb -4.1420 -1.1129 5.4872 0
M  V30 3 Pb -4.5354 -0.3861 4.3180 0
M  V30 4 Pb -3.1990 -0.1284 5.7800 0
M  V30 5 Pb -3.4108 0.4886 4.5482 0
M  V30 6 Pd 8.5700 0.6355 -4.6773 0
M  V30 7 Pb 8.7118 -0.1830 -4.1230 0
M  V30 8 Pb 8.0047 0.1273 -5.3249 0
M  V30 9 Pb 8.2306 1.4732 -5.0999 0
M  V30 10 Pb 8.9568 1.1622 -3.9240 0
M  V30 11 Pd 5.1913 0.4231 1.0519 0
M  V30 12 Pb 5.7650 -0.3412 0.7551 0
M  V30 13 Pb 4.3823 -0.1622 1.0900 0
M  V30 14 Pb 5.9958 1.0024 0.9266 0
M  V30 15 Pb 4.6172 1.2227 1.2242 0
M  V30 16 Pd 0.8464 -0.5945 4.3546 0
M  V30 17 Pb 1.1686 -0.8570 3.4466 0
M  V30 18 Pb 0.5165 -0.3558 5.2621 0
M  V30 19 Pb 0.3750 0.2153 3.9967 0
M  V30 20 Pb 1.1689 -1.4672 4.7149 0
M  V30 21 Pd -1.9166 -4.7879 3.8733 0
M  V30 22 Pb -2.7376 -4.9435 3.3311 0
M  V30 23 Pb -1.0687 -4.6415 4.3880 0
M  V30 24 Pb -2.4921 -4.5681 4.6653 0
M  V30 25 Pb -1.3968 -4.9392 3.0272 0
M  V30 26 Pd -1.2306 4.2029 -1.1049 0
M  V30 27 Pb -0.3503 4.1263 -0.6337 0
M  V30 28 Pb -1.6910 4.1130 -0.2179 0
M  V30 29 Pb -0.8063 4.3173 -2.0084 0
M  V30 30 Pb -2.1239 4.3079 -1.5377 0
M  V30 31 Pd 1.7285 1.8879 -5.6454 0
M  V30 32 Pb 2.3201 1.1634 -6.0025 0
M  V30 33 Pb 2.5333 2.4814 -5.6897 0
M  V30 34 Pb 0.9489 1.2586 -5.6686 0
M  V30 35 Pb 1.1823 2.6479 -5.2816 0
M  V30 36 Pd -5.7590 2.0322 0.1704 0
M  V30 37 Pb -5.1592 2.5254 0.8000 0
M  V30 38 Pb -5.9381 1.3168 0.8494 0
M  V30 39 Pb -5.5638 2.7160 -0.5299 0
M  V30 40 Pb -6.2578 1.5023 -0.5121 0
M  V30 41 Pd -3.4269 -3.5640 -3.0535 0
M  V30 42 Pb -2.5911 -3.9536 -2.6601 0
M  V30 43 Pb -4.2730 -3.1050 -3.3128 0
M  V30 44 Pb -3.9225 -4.0175 -2.3175 0
M  V30 45 Pb -2.9360 -3.0480 -3.7575 0
M  V30 46 Ag 7.8284 2.0570 -5.3386 0
M  V30 47 Fe 5.5412 2.6307 -5.6153 0
M  V30 48 Ag 3.1818 2.8515 -5.7691 0
M  V30 49 Ag 8.6870 -0.7162 -3.5981 0
M  V30 50 Fe 7.5587 -1.0124 -1.5303 0
M  V30 51 Ag 6.2318 -0.8310 0.4304 0
M  V30 52 Ag 9.0930 1.5100 -3.2774 0
M  V30 53 Fe 8.0315 1.6152 -1.1595 0
M  V30 54 Ag 6.6142 1.3741 0.7267 0
M  V30 55 Ag 0.4041 0.7459 -5.7500 0
M  V30 56 Fe -1.0871 -0.9310 -4.9652 0
M  V30 57 Ag -2.6166 -2.6194 -4.2859 0
M  V30 58 Ag -1.0814 -5.0168 2.3459 0
M  V30 59 Fe -1.4256 -4.6749 0.0154 0
M  V30 60 Ag -2.0265 -4.2293 -2.2443 0
M  V30 61 Ag 7.4612 -0.1807 -5.7378 0
M  V30 62 Fe 5.1344 0.1036 -6.1184 0
M  V30 63 Ag 2.8331 0.6754 -6.2531 0
M  V30 64 Ag 4.1804 1.8291 1.2822 0
M  V30 65 Fe 2.2280 2.9581 0.5352 0
M  V30 66 Ag 0.2754 4.0817 -0.2195 0
M  V30 67 Ag -3.3012 -5.0537 2.8553 0
M  V30 68 Fe -3.9241 -4.7536 0.5889 0
M  V30 69 Ag -4.2489 -4.3170 -1.7173 0
M  V30 70 Ag -6.5274 1.0665 -1.0559 0
M  V30 71 Fe -5.9071 -0.8201 -2.3500 0
M  V30 72 Ag -4.8960 -2.6998 -3.3807 0
M  V30 73 Ba 1.3119 -2.1511 4.9821 0
M  V30 74 Ga 0.4831 -3.3683 4.8867 0
M  V30 75 Ba -0.4125 -4.5322 4.7402 0
M  V30 76 Ba -2.6871 -0.0214 6.3117 0
M  V30 77 Ga -1.2261 -0.0837 6.2092 0
M  V30 78 Ba 0.2065 -0.1896 5.9176 0
M  V30 79 Ba -5.0781 -0.4834 3.8068 0
M  V30 80 Ga -5.5515 0.1643 2.5659 0
M  V30 81 Ba -6.0899 0.7506 1.3209 0
M  V30 82 Ba 3.7668 -0.5895 1.0736 0
M  V30 83 Ga 2.5973 -0.8265 1.9384 0
M  V30 84 Ba 1.4149 -1.0876 2.7784 0
M  V30 85 Ba -4.2599 -1.7791 5.8144 0
M  V30 86 Ga -3.6419 -3.0960 5.5457 0
M  V30 87 Ba -2.9762 -4.3736 5.2094 0
M  V30 88 Ba -2.8069 4.3917 -1.8312 0
M  V30 89 Ga -4.1151 3.8188 -1.4745 0
M  V30 90 Ba -5.3909 3.2093 -1.0651 0
M  V30 91 Ba -2.9841 0.9970 4.1926 0
M  V30 92 Ga -1.5251 0.9586 3.9429 0
M  V30 93 Ba -0.0653 0.7827 3.7681 0
M  V30 94 Ba -2.0552 4.0589 0.4394 0
M  V30 95 Ga -3.3499 3.4827 0.8583 0
M  V30 96 Ba -4.6537 2.8882 1.2189 0
M  V30 97 Ba -0.5610 4.4504 -2.7095 0
M  V30 98 Ga 0.1429 3.7940 -3.8344 0
M  V30 99 Ba 0.8281 3.2666 -5.0361 0
M  V30 END ATOM
M  V30 BEGIN BOND
M  V30 1 1 1 2
M  V30 2 1 1 3
M  V30 3 1 1 4
M  V30 4 1 1 5
M  V30 5 1 6 7
M  V30 6 1 6 8
M  V30 7 1 6 9
M  V30 8 1 6 10
M  V30 9 1 11 12
M  V30 10 1 11 13
M  V30 11 1 11 14
M  V30 12 1 11 15
M  V30 13 1 16 17
M  V30 14 1 16 18
M  V30 15 1 16 19
M  V30 16 1 16 20
M  V30 17 1 21 22
M  V30 18 1 21 23
M  V30 19 1 21 24
M  V30 20 1 21 25
M  V30 21 1 26 27
M  V30 22 1 26 28
M  V30 23 1 26 29
M  V30 24 1 26 30
M  V30 25 1 31 32
M  V30 26 1 31 33
M  V30 27 1 31 34
M  V30 28 1 31 35
M  V30 29 1 36 37
M  V30 30 1 36 38
M  V30 31 1 36 39
M  V30 32 1 36 40
M  V30 33 1 41 42
M  V30 34 1 41 43
M  V30 35 1 41 44
M  V30 36 1 41 45
M  V30 37 1 46 47
M  V30 38 1 47 48
M  V30 39 1 49 50
M  V30 40 1 50 51
M  V30 41 1 52 53
M  V30 42 1 53 54
M  V30 43 1 55 56
M  V30 44 1 56 57
M  V30 45 1 58 59
M  V30 46 1 59 60
M  V30 47 1 61 62
M  V30 48 1 62 63
M  V30 49 1 64 65
M  V30 50 1 65 66
M  V30 51 1 67 68
M  V30 52 1 68 69
M  V30 53 1 70 71
M  V30 54 1 71 72
M  V30 55 1 73 74
M  V30 56 1 74 75
M  V30 57 1 76 77
M  V30 58 1 77 78
M  V30 59 1 79 80
M  V30 60 1 80 81
M  V30 61 1 82 83
M  V30 62 1 83 84
M  V30 63 1 85 86
M  V30 64 1 86 87
M  V30 65 1 88 89
M  V30 66 1 89 90
M  V30 67 1 91 92
M  V30 68 1 92 93
M  V30 69 1 94 95
M  V30 70 1 95 96
M  V30 71 1 97 98
M  V30 72 1 98 99
M  V30 73 1 2 85
M  V30 74 1 3 79
M  V30 75 1 4 76
M  V30 76 1 5 91
M  V30 77 1 7 49
M  V30 78 1 8 61
M  V30 79 1 9 46
M  V30 80 1 10 52
M  V30 81 1 12 51
M  V30 82 1 13 82
M  V30 83 1 14 54
M  V30 84 1 15 64
M  V30 85 1 17 84
M  V30 86 1 18 78
M  V30 87 1 19 93
M  V30 88 1 20 73
M  V30 89 1 22 67
M  V30 90 1 23 75
M  V30 91 1 24 87
M  V30 92 1 25 58
M  V30 93 1 27 66
M  V30 94 1 28 94
M  V30 95 1 29 97
M  V30 96 1 30 88
M  V30 97 1 32 63
M  V30 98 1 33 48
M  V30 99 1 34 55
M  V30 100 1 35 99
M  V30 101 1 37 96
M  V30 102 1 38 81
M  V30 103 1 39 90
M  V30 104 1 40 70
M  V30 105 1 42 60
M  V30 106 1 43 72
M  V30 107 1 44 69
M  V30 108 1 45 57
M  V30 END BOND
M  V30 END CTAB
M  END

$$$$
