
     RDKit          3D

  0  0  0  0  0  0  0  0  0  0999 V3000
M  V30 BEGIN CTAB
M  V30 COUNTS 99 108 0 0 0
M  V30 BEGIN ATOM
M  V30 1 Pd -1.7820 2.0010 -2.9432 0
M  V30 2 Pb -1.3830 2.3905 -3.7751 0
M  V30 3 Pb -0.9811 2.3520 -2.4679 0
M  V30 4 Pb -2.5994 1.6883 -3.4354 0
M  V30 5 Pb -2.1607 1.6396 -2.0864 0
M  V30 6 Pd 0.4880 4.0699 7.3701 0
M  V30 7 Pb 0.9470 3.1825 7.3089 0
M  V30 8 Pb 1.3583 4.5351 7.2135 0
M  V30 9 Pb -0.4329 3.6887 7.2909 0
M  V30 10 Pb 0.0561 4.9667 7.3930 0
M  V30 11 Pd 5.3130 -3.8316 -1.7918 0
M  V30 12 Pb 5.4927 -2.8457 -1.8699 0
M  V30 13 Pb 5.3860 -3.8305 -0.7925 0
M  V30 14 Pb 4.9685 -4.7689 -1.7816 0
M  V30 15 Pb 5.2447 -3.8410 -2.7832 0
M  V30 16 Pd -1.4542 -6.8573 -1.2475 0
M  V30 17 Pb -0.5154 -7.0550 -1.5334 0
M  V30 18 Pb -2.3705 -6.6613 -0.9191 0
M  V30 19 Pb -1.1583 -7.0197 -0.3087 0
M  V30 20 Pb -1.7508 -6.6041 -2.1893 0
M  V30 21 Pd 1.6087 -3.2661 4.7674 0
M  V30 22 Pb 1.9327 -2.4487 5.2437 0
M  V30 23 Pb 2.5346 -3.4796 4.4572 0
M  V30 24 Pb 1.2716 -4.1060 4.3431 0
M  V30 25 Pb 0.6731 -2.9769 4.9548 0
M  V30 26 Pd -3.9411 -2.6946 -4.7315 0
M  V30 27 Pb -4.5605 -2.9014 -3.9837 0
M  V30 28 Pb -3.3538 -2.4758 -5.5086 0
M  V30 29 Pb -4.2649 -1.7479 -4.7505 0
M  V30 30 Pb -3.5492 -3.6336 -4.6581 0
M  V30 31 Pd 2.3101 0.7140 -6.3355 0
M  V30 32 Pb 1.7533 1.5277 -6.1617 0
M  V30 33 Pb 1.5924 0.3784 -6.9383 0
M  V30 34 Pb 2.8253 -0.1185 -6.5052 0
M  V30 35 Pb 2.9890 0.9238 -5.6243 0
M  V30 36 Pd -2.6191 2.6648 2.9521 0
M  V30 37 Pb -2.5829 1.7605 3.3777 0
M  V30 38 Pb -2.6874 3.5742 2.5168 0
M  V30 39 Pb -2.6298 3.0081 3.8999 0
M  V30 40 Pb -2.6954 2.2143 2.0542 0
M  V30 41 Pd 0.2700 7.2599 1.9217 0
M  V30 42 Pb 1.1451 7.3669 2.3938 0
M  V30 43 Pb 0.6867 6.6440 1.2610 0
M  V30 44 Pb -0.6386 6.9838 1.6013 0
M  V30 45 Pb -0.1518 7.7862 2.6527 0
M  V30 46 Ag 1.3473 2.5497 7.2486 0
M  V30 47 Fe 1.7220 0.3519 6.4279 0
M  V30 48 Ag 2.1480 -1.8476 5.6374 0
M  V30 49 Ag -0.0140 -2.6905 5.0197 0
M  V30 50 Fe -1.3501 -0.8259 4.4103 0
M  V30 51 Ag -2.5622 1.0972 3.7274 0
M  V30 52 Ag -0.9118 -7.0842 0.3942 0
M  V30 53 Fe 0.0504 -5.9481 2.2425 0
M  V30 54 Ag 1.0129 -4.7445 4.0476 0
M  V30 55 Ag -3.0503 -6.4164 -0.7626 0
M  V30 56 Fe -4.4044 -4.7894 -1.7915 0
M  V30 57 Ag -4.9357 -3.1549 -3.3993 0
M  V30 58 Ag 5.1689 -3.7828 -3.5202 0
M  V30 59 Fe 4.2488 -2.3816 -5.1890 0
M  V30 60 Ag 3.2078 -0.7534 -6.5528 0
M  V30 61 Ag -0.2396 5.6414 7.2910 0
M  V30 62 Fe -0.5082 7.1234 5.4701 0
M  V30 63 Ag -0.4248 8.0406 3.2943 0
M  V30 64 Ag 1.9104 4.9502 6.9237 0
M  V30 65 Fe 2.1214 6.2453 4.9453 0
M  V30 66 Ag 1.7215 7.3308 2.8722 0
M  V30 67 Ag 5.5264 -2.1072 -2.0296 0
M  V30 68 Fe 4.5958 -0.4654 -3.4856 0
M  V30 69 Ag 3.4978 0.9424 -5.0649 0
M  V30 70 Ag 4.6070 -5.4229 -1.8344 0
M  V30 71 Fe 2.4429 -6.4001 -1.7657 0
M  V30 72 Ag 0.2097 -7.2037 -1.6632 0
M  V30 73 Ag -0.3898 2.6765 -2.1510 0
M  V30 74 Fe 0.3783 4.3767 -0.6913 0
M  V30 75 Ag 0.9552 6.1222 0.8026 0
M  V30 76 Ag -2.9323 -2.2587 -6.0876 0
M  V30 77 Fe -0.9842 -1.1212 -6.8185 0
M  V30 78 Ag 1.0219 0.0516 -7.2896 0
M  V30 79 Ag 5.4337 -3.8609 -0.0427 0
M  V30 80 Fe 4.3745 -3.7440 2.0812 0
M  V30 81 Ag 3.2050 -3.6021 4.1446 0
M  V30 82 Ba -1.0368 2.7214 -4.3546 0
M  V30 83 Ga 0.1247 2.4087 -5.2126 0
M  V30 84 Ba 1.2842 2.1088 -6.0778 0
M  V30 85 Ba -1.9807 -6.4291 -2.9020 0
M  V30 86 Ga -2.6207 -5.3355 -3.7020 0
M  V30 87 Ba -3.2476 -4.3412 -4.6314 0
M  V30 88 Ba -1.1530 3.5298 7.1423 0
M  V30 89 Ga -1.9053 3.3159 5.8811 0
M  V30 90 Ba -2.7061 3.1080 4.6493 0
M  V30 91 Ba -3.2287 1.4789 -3.7941 0
M  V30 92 Ga -3.8430 0.2223 -4.2734 0
M  V30 93 Ba -4.4700 -1.0256 -4.7588 0
M  V30 94 Ba -2.4584 1.3457 -1.4595 0
M  V30 95 Ga -2.5892 1.6452 -0.0140 0
M  V30 96 Ba -2.8155 1.7822 1.4438 0
M  V30 97 Ba -2.7797 4.2287 2.1409 0
M  V30 98 Ga -2.0355 5.4665 1.7965 0
M  V30 99 Ba -1.3234 6.7179 1.4339 0
M  V30 END ATOM
M  V30 BEGIN BOND
M  V30 1 1 1 2
M  V30 2 1 1 3
M  V30 3 1 1 4
M  V30 4 1 1 5
M  V30 5 1 6 7
M  V30 6 1 6 8
M  V30 7 1 6 9
M  V30 8 1 6 10
M  V30 9 1 11 12
M  V30 10 1 11 13
M  V30 11 1 11 14
M  V30 12 1 11 15
M  V30 13 1 16 17
M  V30 14 1 16 18
M  V30 15 1 16 19
M  V30 16 1 16 20
M  V30 17 1 21 22
M  V30 18 1 21 23
M  V30 19 1 21 24
M  V30 20 1 21 25
M  V30 21 1 26 27
M  V30 22 1 26 28
M  V30 23 1 26 29
M  V30 24 1 26 30
M  V30 25 1 31 32
M  V30 26 1 31 33
M  V30 27 1 31 34
M  V30 28 1 31 35
M  V30 29 1 36 37
M  V30 30 1 36 38
M  V30 31 1 36 39
M  V30 32 1 36 40
M  V30 33 1 41 42
M  V30 34 1 41 43
M  V30 35 1 41 44
M  V30 36 1 41 45
M  V30 37 1 46 47
M  V30 38 1 47 48
M  V30 39 1 49 50
M  V30 40 1 50 51
M  V30 41 1 52 53
M  V30 42 1 53 54
M  V30 43 1 55 56
M  V30 44 1 56 57
M  V30 45 1 58 59
M  V30 46 1 59 60
M  V30 47 1 61 62
M  V30 48 1 62 63
M  V30 49 1 64 65
M  V30 50 1 65 66
M  V30 51 1 67 68
M  V30 52 1 68 69
M  V30 53 1 70 71
M  V30 54 1 71 72
M  V30 55 1 73 74
M  V30 56 1 74 75
M  V30 57 1 76 77
M  V30 58 1 77 78
M  V30 59 1 79 80
M  V30 60 1 80 81
M  V30 61 1 82 83
M  V30 62 1 83 84
M  V30 63 1 85 86
M  V30 64 1 86 87
M  V30 65 1 88 89
M  V30 66 1 89 90
M  V30 67 1 91 92
M  V30 68 1 92 93
M  V30 69 1 94 95
M  V30 70 1 95 96
M  V30 71 1 97 98
M  V30 72 1 98 99
M  V30 73 1 2 82
M  V30 74 1 3 73
M  V30 75 1 4 91
M  V30 76 1 5 94
M  V30 77 1 7 46
M  V30 78 1 8 64
M  V30 79 1 9 88
M  V30 80 1 10 61
M  V30 81 1 12 67
M  V30 82 1 13 79
M  V30 83 1 14 70
M  V30 84 1 15 58
M  V30 85 1 17 72
M  V30 86 1 18 55
M  V30 87 1 19 52
M  V30 88 1 20 85
M  V30 89 1 22 48
M  V30 90 1 23 81
M  V30 91 1 24 54
M  V30 92 1 25 49
M  V30 93 1 27 57
M  V30 94 1 28 76
M  V30 95 1 29 93
M  V30 96 1 30 87
M  V30 97 1 32 84
M  V30 98 1 33 78
M  V30 99 1 34 60
M  V30 100 1 35 69
M  V30 101 1 37 51
M  V30 102 1 38 97
M  V30 103 1 39 90
M  V30 104 1 40 96
M  V30 105 1 42 66
M  V30 106 1 43 75
M  V30 107 1 44 99
M  V30 108 1 45 63
M  V30 END BOND
M  V30 END CTAB
M  END

$$$$
