
     RDKit          3D

  0  0  0  0  0  0  0  0  0  0999 V3000
M  V30 BEGIN CTAB
M  V30 COUNTS 99 108 0 0 0
M  V30 BEGIN ATOM
M  V30 1 Pd 0.0294 3.5109 -0.5205 0
M  V30 2 Pb -0.8526 3.5748 -0.0485 0
M  V30 3 Pb -0.3559 4.1506 -1.1800 0
M  V30 4 Pb 0.3700 2.8622 0.1598 0
M  V30 5 Pb 0.8731 3.4155 -1.0523 0
M  V30 6 Pd 4.8203 1.3522 1.7355 0
M  V30 7 Pb 4.8167 0.7110 0.9533 0
M  V30 8 Pb 5.8178 1.3063 1.7390 0
M  V30 9 Pb 3.8205 1.3308 1.7700 0
M  V30 10 Pb 4.8314 1.8498 2.6027 0
M  V30 11 Pd 5.0348 -3.8552 1.7144 0
M  V30 12 Pb 4.0356 -3.8739 1.7077 0
M  V30 13 Pb 6.0275 -3.7537 1.7515 0
M  V30 14 Pb 4.9969 -4.1492 2.6653 0
M  V30 15 Pb 5.0237 -3.2958 0.8779 0
M  V30 16 Pd -2.9016 1.1150 3.4412 0
M  V30 17 Pb -2.2031 1.7401 3.7838 0
M  V30 18 Pb -3.6552 0.5218 3.1426 0
M  V30 19 Pb -2.6082 0.4361 4.1183 0
M  V30 20 Pb -3.1369 1.8063 2.7619 0
M  V30 21 Pd 0.6683 -4.3740 -1.7667 0
M  V30 22 Pb 0.4785 -4.6238 -2.7092 0
M  V30 23 Pb -0.2106 -4.7587 -1.4931 0
M  V30 24 Pb 0.8590 -4.1622 -0.8098 0
M  V30 25 Pb 1.4624 -3.8192 -2.0770 0
M  V30 26 Pd 1.7682 0.4925 5.8846 0
M  V30 27 Pb 0.9099 -0.0228 5.9520 0
M  V30 28 Pb 1.2463 1.3152 5.6757 0
M  V30 29 Pb 2.2888 -0.3481 6.0494 0
M  V30 30 Pb 2.6028 1.0373 5.7739 0
M  V30 31 Pd -5.2928 2.4124 -4.7312 0
M  V30 32 Pb -5.9598 2.4403 -3.9859 0
M  V30 33 Pb -4.5455 2.3830 -5.3948 0
M  V30 34 Pb -5.5448 1.4584 -4.8900 0
M  V30 35 Pb -4.9535 3.3222 -4.5122 0
M  V30 36 Pd 1.7964 0.3930 -4.8229 0
M  V30 37 Pb 1.2234 1.0194 -5.3502 0
M  V30 38 Pb 2.2618 -0.3198 -4.2641 0
M  V30 39 Pb 2.0996 1.1177 -4.1964 0
M  V30 40 Pb 1.5220 -0.3104 -5.4682 0
M  V30 41 Pd -5.8746 -1.1190 -1.0366 0
M  V30 42 Pb -5.8269 -1.0313 -0.0379 0
M  V30 43 Pb -5.9311 -1.2154 -2.0329 0
M  V30 44 Pb -6.3351 -0.2339 -1.1259 0
M  V30 45 Pb -5.4209 -2.0086 -0.9630 0
M  V30 46 Ag -0.7559 4.5844 -1.6362 0
M  V30 47 Fe -2.6590 4.4907 -3.0432 0
M  V30 48 Ag -4.5640 3.9316 -4.3344 0
M  V30 49 Ag -3.9204 2.4296 -5.8076 0
M  V30 50 Fe -1.5933 1.9580 -5.8787 0
M  V30 51 Ag 0.7090 1.3860 -5.7546 0
M  V30 52 Ag 6.5227 1.0700 1.7495 0
M  V30 53 Fe 7.2454 -1.1729 1.7724 0
M  V30 54 Ag 6.7135 -3.4684 1.7695 0
M  V30 55 Ag -0.9163 -4.9256 -1.3099 0
M  V30 56 Fe -3.0442 -3.8984 -1.0753 0
M  V30 57 Ag -5.0693 -2.6699 -0.9037 0
M  V30 58 Ag 0.3814 -4.6764 -3.4399 0
M  V30 59 Fe 0.7069 -3.0606 -5.1164 0
M  V30 60 Ag 1.3002 -0.9056 -5.8465 0
M  V30 61 Ag 4.8817 -4.1675 3.4028 0
M  V30 62 Fe 3.8131 -2.7076 4.9401 0
M  V30 63 Ag 2.6613 -0.9978 6.1192 0
M  V30 64 Ba -6.4197 2.4257 -3.3926 0
M  V30 65 Ga -6.5776 1.4445 -2.3000 0
M  V30 66 Ba -6.6835 0.4229 -1.2385 0
M  V30 67 Ba -1.7033 2.2225 4.0618 0
M  V30 68 Ga -0.4235 2.0905 4.7748 0
M  V30 69 Ba 0.8536 1.9203 5.4845 0
M  V30 70 Ba -4.2502 0.0895 2.9753 0
M  V30 71 Ga -4.9900 -0.4327 1.8048 0
M  V30 72 Ba -5.8075 -1.0108 0.7150 0
M  V30 73 Ba 3.2873 -3.8455 1.7404 0
M  V30 74 Ga 2.1503 -3.9450 0.8082 0
M  V30 75 Ba 0.9791 -4.0364 -0.0817 0
M  V30 76 Ba 1.4973 3.3332 -1.4636 0
M  V30 77 Ga 1.9069 2.4841 -2.6039 0
M  V30 78 Ba 2.3659 1.6594 -3.7433 0
M  V30 79 Ba -2.3533 -0.0564 4.6274 0
M  V30 80 Ga -1.0542 -0.2354 5.3125 0
M  V30 81 Ba 0.2546 -0.3932 5.9842 0
M  V30 82 Ba 4.8359 2.1418 3.2940 0
M  V30 83 Ga 4.0258 1.8363 4.4915 0
M  V30 84 Ba 3.1900 1.4951 5.6616 0
M  V30 85 Ba 4.8328 0.1907 0.3968 0
M  V30 86 Ga 4.9141 -1.2961 0.3404 0
M  V30 87 Ba 4.9954 -2.7838 0.3192 0
M  V30 88 Ba -1.5471 3.6394 0.2343 0
M  V30 89 Ga -2.3957 2.9896 1.2514 0
M  V30 90 Ba -3.2572 2.3526 2.2659 0
M  V30 91 Ba -5.7131 0.7296 -4.9388 0
M  V30 92 Ga -5.8583 -0.2946 -3.8850 0
M  V30 93 Ba -5.9883 -1.2674 -2.7815 0
M  V30 94 Ba 2.0430 -3.3721 -2.3062 0
M  V30 95 Ga 2.2717 -2.1174 -3.0921 0
M  V30 96 Ba 2.6061 -0.8743 -3.8582 0
M  V30 97 Ba 0.5913 2.3701 0.6805 0
M  V30 98 Ga 1.8577 1.8488 1.2292 0
M  V30 99 Ba 3.0747 1.2749 1.8340 0
M  V30 END ATOM
M  V30 BEGIN BOND
M  V30 1 1 1 2
M  V30 2 1 1 3
M  V30 3 1 1 4
M  V30 4 1 1 5
M  V30 5 1 6 7
M  V30 6 1 6 8
M  V30 7 1 6 9
M  V30 8 1 6 10
M  V30 9 1 11 12
M  V30 10 1 11 13
M  V30 11 1 11 14
M  V30 12 1 11 15
M  V30 13 1 16 17
M  V30 14 1 16 18
M  V30 15 1 16 19
M  V30 16 1 16 20
M  V30 17 1 21 22
M  V30 18 1 21 23
M  V30 19 1 21 24
M  V30 20 1 21 25
M  V30 21 1 26 27
M  V30 22 1 26 28
M  V30 23 1 26 29
M  V30 24 1 26 30
M  V30 25 1 31 32
M  V30 26 1 31 33
M  V30 27 1 31 34
M  V30 28 1 31 35
M  V30 29 1 36 37
M  V30 30 1 36 38
M  V30 31 1 36 39
M  V30 32 1 36 40
M  V30 33 1 41 42
M  V30 34 1 41 43
M  V30 35 1 41 44
M  V30 36 1 41 45
M  V30 37 1 46 47
M  V30 38 1 47 48
M  V30 39 1 49 50
M  V30 40 1 50 51
M  V30 41 1 52 53
M  V30 42 1 53 54
M  V30 43 1 55 56
M  V30 44 1 56 57
M  V30 45 1 58 59
M  V30 46 1 59 60
M  V30 47 1 61 62
M  V30 48 1 62 63
M  V30 49 1 64 65
M  V30 50 1 65 66
M  V30 51 1 67 68
M  V30 52 1 68 69
M  V30 53 1 70 71
M  V30 54 1 71 72
M  V30 55 1 73 74
M  V30 56 1 74 75
M  V30 57 1 76 77
M  V30 58 1 77 78
M  V30 59 1 79 80
M  V30 60 1 80 81
M  V30 61 1 82 83
M  V30 62 1 83 84
M  V30 63 1 85 86
M  V30 64 1 86 87
M  V30 65 1 88 89
M  V30 66 1 89 90
M  V30 67 1 91 92
M  V30 68 1 92 93
M  V30 69 1 94 95
M  V30 70 1 95 96
M  V30 71 1 97 98
M  V30 72 1 98 99
M  V30 73 1 2 88
M  V30 74 1 3 46
M  V30 75 1 4 97
M  V30 76 1 5 76
M  V30 77 1 7 85
M  V30 78 1 8 52
M  V30 79 1 9 99
M  V30 80 1 10 82
M  V30 81 1 12 73
M  V30 82 1 13 54
M  V30 83 1 14 61
M  V30 84 1 15 87
M  V30 85 1 17 67
M  V30 86 1 18 70
M  V30 87 1 19 79
M  V30 88 1 20 90
M  V30 89 1 22 58
M  V30 90 1 23 55
M  V30 91 1 24 75
M  V30 92 1 25 94
M  V30 93 1 27 81
M  V30 94 1 28 69
M  V30 95 1 29 63
M  V30 96 1 30 84
M  V30 97 1 32 64
M  V30 98 1 33 49
M  V30 99 1 34 91
M  V30 100 1 35 48
M  V30 101 1 37 51
M  V30 102 1 38 96
M  V30 103 1 39 78
M  V30 104 1 40 60
M  V30 105 1 42 72
M  V30 106 1 43 93
M  V30 107 1 44 66
M  V30 108 1 45 57
M  V30 END BOND
M  V30 END CTAB
M  END

$$$$
