
     RDKit          3D

  0  0  0  0  0  0  0  0  0  0999 V3000
M  V30 BEGIN CTAB
M  V30 COUNTS 99 108 0 0 0
M  V30 BEGIN ATOM
M  V30 1 Pd 1.5595 0.0993 -5.1365 0
M  V30 2 Pb 1.8873 -0.8419 -5.2252 0
M  V30 3 Pb 1.1980 1.0304 -5.1113 0
M  V30 4 Pb 2.4727 0.4816 -5.2987 0
M  V30 5 Pb 0.6522 -0.2749 -4.9392 0
M  V30 6 Pd -6.7604 4.5306 1.2482 0
M  V30 7 Pb -6.5190 4.1111 2.1207 0
M  V30 8 Pb -6.9456 4.9305 0.3431 0
M  V30 9 Pb -7.2969 3.7308 0.9800 0
M  V30 10 Pb -6.1787 5.3152 1.4487 0
M  V30 11 Pd 2.2029 -4.2765 4.4616 0
M  V30 12 Pb 3.1012 -4.4839 4.0745 0
M  V30 13 Pb 1.2874 -4.1388 4.8490 0
M  V30 14 Pb 2.6451 -3.7642 5.2006 0
M  V30 15 Pb 1.8156 -4.7926 3.6967 0
M  V30 16 Pd 4.4364 0.5070 4.5850 0
M  V30 17 Pb 4.4632 -0.2278 5.2638 0
M  V30 18 Pb 4.3636 1.1928 3.8545 0
M  V30 19 Pb 3.6301 0.8442 5.0651 0
M  V30 20 Pb 5.2280 0.1503 4.0953 0
M  V30 21 Pd -2.7462 -1.0307 4.9594 0
M  V30 22 Pb -3.3140 -0.2111 4.8898 0
M  V30 23 Pb -2.2276 -1.8750 5.1220 0
M  V30 24 Pb -2.0970 -0.5155 5.5127 0
M  V30 25 Pb -3.3460 -1.4867 4.3019 0
M  V30 26 Pd 6.3860 0.7268 -2.4172 0
M  V30 27 Pb 5.9038 1.4034 -1.8556 0
M  V30 28 Pb 6.8354 -0.0212 -2.9006 0
M  V30 29 Pb 5.9640 1.0342 -3.2734 0
M  V30 30 Pb 6.7832 0.3873 -1.5671 0
M  V30 31 Pd 4.7411 -6.0098 -2.0736 0
M  V30 32 Pb 4.2535 -5.8206 -2.9221 0
M  V30 33 Pb 5.5551 -5.6353 -2.5110 0
M  V30 34 Pb 3.8978 -6.2691 -1.6023 0
M  V30 35 Pb 5.1954 -6.0463 -1.1857 0
M  V30 36 Pd -5.6550 0.2467 -1.9532 0
M  V30 37 Pb -5.5474 -0.3726 -1.1718 0
M  V30 38 Pb -5.7649 0.8396 -2.7562 0
M  V30 39 Pb -6.4418 0.6545 -1.4828 0
M  V30 40 Pb -4.8902 -0.1915 -2.4273 0
M  V30 41 Pd -4.1360 5.2241 -3.6890 0
M  V30 42 Pb -5.0235 5.4246 -3.2567 0
M  V30 43 Pb -3.2407 5.0111 -4.0771 0
M  V30 44 Pb -4.5630 4.4431 -4.1459 0
M  V30 45 Pb -3.7375 5.9674 -3.1572 0
M  V30 46 Ag -6.2994 3.7893 2.7590 0
M  V30 47 Fe -5.0303 2.0848 3.8165 0
M  V30 48 Ag -3.7652 0.3875 4.8903 0
M  V30 49 Ag 2.0705 -1.5653 -5.3087 0
M  V30 50 Fe 2.9770 -3.5964 -4.4782 0
M  V30 51 Ag 3.9164 -5.5629 -3.5371 0
M  V30 52 Ag -3.7732 -1.7646 3.7512 0
M  V30 53 Fe -4.6534 -1.3451 1.5834 0
M  V30 54 Ag -5.4876 -0.8397 -0.5843 0
M  V30 55 Ag 3.0130 1.0144 5.4503 0
M  V30 56 Fe 0.7085 0.5372 5.7393 0
M  V30 57 Ag -1.5744 -0.0950 5.8404 0
M  V30 58 Ag 4.3376 1.6474 3.2523 0
M  V30 59 Fe 4.9009 1.8557 0.9486 0
M  V30 60 Ag 5.5625 1.8320 -1.3380 0
M  V30 61 Ag 1.6104 -5.1830 3.0891 0
M  V30 62 Fe 2.3279 -5.8610 0.9281 0
M  V30 63 Ag 3.2891 -6.3875 -1.1797 0
M  V30 64 Ag -5.6922 5.8759 1.4130 0
M  V30 65 Fe -4.3608 6.5730 -0.4062 0
M  V30 66 Ag -3.5558 6.4487 -2.6209 0
M  V30 67 Ag 3.7390 -4.6969 3.7426 0
M  V30 68 Fe 4.7273 -5.3660 1.6906 0
M  V30 69 Ag 5.4476 -5.9882 -0.4838 0
M  V30 70 Ag 5.7901 -0.0695 3.6560 0
M  V30 71 Fe 6.5315 -0.0361 1.4041 0
M  V30 72 Ag 7.0305 0.1372 -0.9075 0
M  V30 73 Ag -0.0120 -0.5856 -4.7769 0
M  V30 74 Fe -2.1687 -0.5218 -3.7818 0
M  V30 75 Ag -4.3370 -0.5255 -2.8099 0
M  V30 76 Ag 0.9265 1.7284 -5.1330 0
M  V30 77 Fe -0.8180 3.2877 -4.7319 0
M  V30 78 Ag -2.5549 4.8566 -4.3352 0
M  V30 79 Ag 7.1269 -0.6499 -3.1796 0
M  V30 80 Fe 6.7862 -2.9956 -3.1353 0
M  V30 81 Ag 6.1002 -5.2455 -2.8406 0
M  V30 82 Ba -7.0823 5.2274 -0.3394 0
M  V30 83 Ga -6.3602 5.3890 -1.6260 0
M  V30 84 Ba -5.6919 5.5811 -2.9371 0
M  V30 85 Ba 3.0306 -3.3909 5.7278 0
M  V30 86 Ga 3.7273 -2.0885 5.7666 0
M  V30 87 Ba 4.4124 -0.7795 5.7709 0
M  V30 88 Ba -7.6839 3.1419 0.7233 0
M  V30 89 Ga -7.3556 2.0276 -0.1898 0
M  V30 90 Ba -7.0403 0.9096 -1.1029 0
M  V30 91 Ba 3.1402 0.8108 -5.4146 0
M  V30 92 Ga 4.3955 1.0088 -4.6576 0
M  V30 93 Ba 5.6681 1.2312 -3.9372 0
M  V30 94 Ba -5.8188 1.2387 -3.3940 0
M  V30 95 Ga -5.3679 2.5497 -3.9084 0
M  V30 96 Ba -4.9274 3.8568 -4.4413 0
M  V30 97 Ba 0.5923 -4.1133 5.1389 0
M  V30 98 Ga -0.6129 -3.2561 5.1808 0
M  V30 99 Ba -1.8887 -2.5195 5.3177 0
M  V30 END ATOM
M  V30 BEGIN BOND
M  V30 1 1 1 2
M  V30 2 1 1 3
M  V30 3 1 1 4
M  V30 4 1 1 5
M  V30 5 1 6 7
M  V30 6 1 6 8
M  V30 7 1 6 9
M  V30 8 1 6 10
M  V30 9 1 11 12
M  V30 10 1 11 13
M  V30 11 1 11 14
M  V30 12 1 11 15
M  V30 13 1 16 17
M  V30 14 1 16 18
M  V30 15 1 16 19
M  V30 16 1 16 20
M  V30 17 1 21 22
M  V30 18 1 21 23
M  V30 19 1 21 24
M  V30 20 1 21 25
M  V30 21 1 26 27
M  V30 22 1 26 28
M  V30 23 1 26 29
M  V30 24 1 26 30
M  V30 25 1 31 32
M  V30 26 1 31 33
M  V30 27 1 31 34
M  V30 28 1 31 35
M  V30 29 1 36 37
M  V30 30 1 36 38
M  V30 31 1 36 39
M  V30 32 1 36 40
M  V30 33 1 41 42
M  V30 34 1 41 43
M  V30 35 1 41 44
M  V30 36 1 41 45
M  V30 37 1 46 47
M  V30 38 1 47 48
M  V30 39 1 49 50
M  V30 40 1 50 51
M  V30 41 1 52 53
M  V30 42 1 53 54
M  V30 43 1 55 56
M  V30 44 1 56 57
M  V30 45 1 58 59
M  V30 46 1 59 60
M  V30 47 1 61 62
M  V30 48 1 62 63
M  V30 49 1 64 65
M  V30 50 1 65 66
M  V30 51 1 67 68
M  V30 52 1 68 69
M  V30 53 1 70 71
M  V30 54 1 71 72
M  V30 55 1 73 74
M  V30 56 1 74 75
M  V30 57 1 76 77
M  V30 58 1 77 78
M  V30 59 1 79 80
M  V30 60 1 80 81
M  V30 61 1 82 83
M  V30 62 1 83 84
M  V30 63 1 85 86
M  V30 64 1 86 87
M  V30 65 1 88 89
M  V30 66 1 89 90
M  V30 67 1 91 92
M  V30 68 1 92 93
M  V30 69 1 94 95
M  V30 70 1 95 96
M  V30 71 1 97 98
M  V30 72 1 98 99
M  V30 73 1 2 49
M  V30 74 1 3 76
M  V30 75 1 4 91
M  V30 76 1 5 73
M  V30 77 1 7 46
M  V30 78 1 8 82
M  V30 79 1 9 88
M  V30 80 1 10 64
M  V30 81 1 12 67
M  V30 82 1 13 97
M  V30 83 1 14 85
M  V30 84 1 15 61
M  V30 85 1 17 87
M  V30 86 1 18 58
M  V30 87 1 19 55
M  V30 88 1 20 70
M  V30 89 1 22 48
M  V30 90 1 23 99
M  V30 91 1 24 57
M  V30 92 1 25 52
M  V30 93 1 27 60
M  V30 94 1 28 79
M  V30 95 1 29 93
M  V30 96 1 30 72
M  V30 97 1 32 51
M  V30 98 1 33 81
M  V30 99 1 34 63
M  V30 100 1 35 69
M  V30 101 1 37 54
M  V30 102 1 38 94
M  V30 103 1 39 90
M  V30 104 1 40 75
M  V30 105 1 42 84
M  V30 106 1 43 78
M  V30 107 1 44 96
M  V30 108 1 45 66
M  V30 END BOND
M  V30 END CTAB
M  END

$$$$
