
     RDKit          3D

  0  0  0  0  0  0  0  0  0  0999 V3000
M  V30 BEGIN CTAB
M  V30 COUNTS 99 108 0 0 0
M  V30 BEGIN ATOM
M  V30 1 Pd -1.7570 -2.8600 4.3618 0
M  V30 2 Pb -0.8805 -3.2900 4.1567 0
M  V30 3 Pb -1.3184 -2.4559 5.1630 0
M  V30 4 Pb -2.1727 -3.3114 3.5714 0
M  V30 5 Pb -2.5986 -2.3372 4.5025 0
M  V30 6 Pd -5.0107 -3.0566 -2.7843 0
M  V30 7 Pb -5.0352 -2.1659 -2.3293 0
M  V30 8 Pb -5.3416 -2.5938 -3.6012 0
M  V30 9 Pb -4.6781 -3.5099 -1.9573 0
M  V30 10 Pb -4.7758 -3.8445 -3.3522 0
M  V30 11 Pd -1.5313 1.5355 -5.8447 0
M  V30 12 Pb -0.6375 1.5515 -5.4005 0
M  V30 13 Pb -2.4370 1.4026 -6.2323 0
M  V30 14 Pb -1.1528 1.0437 -6.6266 0
M  V30 15 Pb -1.9796 1.8116 -4.9926 0
M  V30 16 Pd 3.0219 -2.2904 -1.0835 0
M  V30 17 Pb 2.2093 -2.8502 -1.2462 0
M  V30 18 Pb 3.8435 -1.7411 -0.9113 0
M  V30 19 Pb 2.9434 -1.9130 -2.0069 0
M  V30 20 Pb 3.0549 -2.6887 -0.1695 0
M  V30 21 Pd 0.4171 3.0318 -0.9309 0
M  V30 22 Pb 0.1295 3.6109 -0.1733 0
M  V30 23 Pb 1.3095 3.4830 -0.9523 0
M  V30 24 Pb 0.7137 2.5042 -1.7264 0
M  V30 25 Pb -0.4665 2.5530 -0.8773 0
M  V30 26 Pd -0.5245 -3.1235 -5.1103 0
M  V30 27 Pb 0.2869 -2.5539 -4.9588 0
M  V30 28 Pb -0.4243 -3.5060 -4.1940 0
M  V30 29 Pb -0.5912 -2.7059 -6.0202 0
M  V30 30 Pb -1.3312 -3.7129 -5.2386 0
M  V30 31 Pd 3.1727 2.2981 6.5669 0
M  V30 32 Pb 3.5258 3.0993 6.0882 0
M  V30 33 Pb 2.3289 2.7727 6.8075 0
M  V30 34 Pb 3.9650 1.7787 6.2444 0
M  V30 35 Pb 2.7532 1.4858 6.9646 0
M  V30 36 Pd -2.9372 2.2302 3.1026 0
M  V30 37 Pb -2.7596 2.5511 4.0304 0
M  V30 38 Pb -3.0183 1.9230 2.1501 0
M  V30 39 Pb -3.4468 1.4405 3.4556 0
M  V30 40 Pb -2.4216 3.0221 2.7859 0
M  V30 41 Pd 5.0565 2.2963 1.7779 0
M  V30 42 Pb 5.2796 1.5488 1.1456 0
M  V30 43 Pb 5.3511 1.7451 2.5611 0
M  V30 44 Pb 4.8814 3.0537 2.4085 0
M  V30 45 Pb 4.7556 2.8715 1.0154 0
M  V30 46 Ag -0.9243 -2.1980 5.7455 0
M  V30 47 Fe 0.7084 -0.6804 6.5591 0
M  V30 48 Ag 2.3458 0.9091 7.2090 0
M  V30 49 Ag 1.6392 3.0335 6.9292 0
M  V30 50 Fe -0.5228 3.0273 5.9547 0
M  V30 51 Ag -2.5141 2.8186 4.6837 0
M  V30 52 Ag -5.5172 -2.1856 -4.1984 0
M  V30 53 Fe -4.5682 -0.4669 -5.5157 0
M  V30 54 Ag -3.1194 1.1723 -6.4110 0
M  V30 55 Ag -4.9276 -1.4475 -2.1384 0
M  V30 56 Fe -3.7214 0.3862 -3.0518 0
M  V30 57 Ag -2.3794 1.8517 -4.3570 0
M  V30 58 Ag -0.1962 -3.5251 3.9686 0
M  V30 59 Fe 1.4862 -3.3531 2.3055 0
M  V30 60 Ag 2.9862 -3.0148 0.4997 0
M  V30 61 Ag -2.4750 -3.6774 2.9899 0
M  V30 62 Fe -3.4528 -3.7383 0.8259 0
M  V30 63 Ag -4.4344 -3.8490 -1.3343 0
M  V30 64 Ba 3.7764 3.6660 5.6691 0
M  V30 65 Ga 4.2816 3.6783 4.2842 0
M  V30 66 Ba 4.7755 3.6147 2.8965 0
M  V30 67 Ba 1.6053 -3.2843 -1.3434 0
M  V30 68 Ga 0.6337 -3.5318 -2.4234 0
M  V30 69 Ba -0.3382 -3.7795 -3.5031 0
M  V30 70 Ba 4.4765 -1.3478 -0.8023 0
M  V30 71 Ga 4.9362 -0.1630 -0.0446 0
M  V30 72 Ba 5.4962 1.0049 0.6705 0
M  V30 73 Ba 0.0175 1.4992 -5.0418 0
M  V30 74 Ga 0.4931 1.8371 -3.6880 0
M  V30 75 Ba 0.9859 2.1668 -2.3384 0
M  V30 76 Ba -3.2187 -1.9166 4.5542 0
M  V30 77 Ga -3.5285 -0.5263 4.1575 0
M  V30 78 Ba -3.8296 0.8648 3.7567 0
M  V30 79 Ba 2.8574 -1.6439 -2.7024 0
M  V30 80 Ga 1.8762 -1.8852 -3.7803 0
M  V30 81 Ba 0.8969 -2.1237 -4.8607 0
M  V30 82 Ba -4.5088 -4.3424 -3.8468 0
M  V30 83 Ga -3.2231 -4.3021 -4.5825 0
M  V30 84 Ba -1.9198 -4.1883 -5.2790 0
M  V30 85 Ba 1.9926 3.7927 -0.9775 0
M  V30 86 Ga 3.2599 3.5595 -0.2572 0
M  V30 87 Ba 4.5276 3.3266 0.4626 0
M  V30 88 Ba 4.5365 1.3950 5.9442 0
M  V30 89 Ga 5.0742 1.3556 4.5688 0
M  V30 90 Ba 5.5622 1.3641 3.1743 0
M  V30 91 Ba -1.1305 2.1968 -0.8100 0
M  V30 92 Ga -2.0845 1.9543 0.2994 0
M  V30 93 Ba -3.0251 1.7231 1.4225 0
M  V30 94 Ba -0.1084 4.0503 0.3807 0
M  V30 95 Ga -1.0604 3.8505 1.4823 0
M  V30 96 Ba -2.0184 3.6127 2.5710 0
M  V30 97 Ba -0.9413 0.5564 -7.1549 0
M  V30 98 Ga -0.7397 -0.8980 -6.9871 0
M  V30 99 Ba -0.5708 -2.3328 -6.6749 0
M  V30 END ATOM
M  V30 BEGIN BOND
M  V30 1 1 1 2
M  V30 2 1 1 3
M  V30 3 1 1 4
M  V30 4 1 1 5
M  V30 5 1 6 7
M  V30 6 1 6 8
M  V30 7 1 6 9
M  V30 8 1 6 10
M  V30 9 1 11 12
M  V30 10 1 11 13
M  V30 11 1 11 14
M  V30 12 1 11 15
M  V30 13 1 16 17
M  V30 14 1 16 18
M  V30 15 1 16 19
M  V30 16 1 16 20
M  V30 17 1 21 22
M  V30 18 1 21 23
M  V30 19 1 21 24
M  V30 20 1 21 25
M  V30 21 1 26 27
M  V30 22 1 26 28
M  V30 23 1 26 29
M  V30 24 1 26 30
M  V30 25 1 31 32
M  V30 26 1 31 33
M  V30 27 1 31 34
M  V30 28 1 31 35
M  V30 29 1 36 37
M  V30 30 1 36 38
M  V30 31 1 36 39
M  V30 32 1 36 40
M  V30 33 1 41 42
M  V30 34 1 41 43
M  V30 35 1 41 44
M  V30 36 1 41 45
M  V30 37 1 46 47
M  V30 38 1 47 48
M  V30 39 1 49 50
M  V30 40 1 50 51
M  V30 41 1 52 53
M  V30 42 1 53 54
M  V30 43 1 55 56
M  V30 44 1 56 57
M  V30 45 1 58 59
M  V30 46 1 59 60
M  V30 47 1 61 62
M  V30 48 1 62 63
M  V30 49 1 64 65
M  V30 50 1 65 66
M  V30 51 1 67 68
M  V30 52 1 68 69
M  V30 53 1 70 71
M  V30 54 1 71 72
M  V30 55 1 73 74
M  V30 56 1 74 75
M  V30 57 1 76 77
M  V30 58 1 77 78
M  V30 59 1 79 80
M  V30 60 1 80 81
M  V30 61 1 82 83
M  V30 62 1 83 84
M  V30 63 1 85 86
M  V30 64 1 86 87
M  V30 65 1 88 89
M  V30 66 1 89 90
M  V30 67 1 91 92
M  V30 68 1 92 93
M  V30 69 1 94 95
M  V30 70 1 95 96
M  V30 71 1 97 98
M  V30 72 1 98 99
M  V30 73 1 2 58
M  V30 74 1 3 46
M  V30 75 1 4 61
M  V30 76 1 5 76
M  V30 77 1 7 55
M  V30 78 1 8 52
M  V30 79 1 9 63
M  V30 80 1 10 82
M  V30 81 1 12 73
M  V30 82 1 13 54
M  V30 83 1 14 97
M  V30 84 1 15 57
M  V30 85 1 17 67
M  V30 86 1 18 70
M  V30 87 1 19 79
M  V30 88 1 20 60
M  V30 89 1 22 94
M  V30 90 1 23 85
M  V30 91 1 24 75
M  V30 92 1 25 91
M  V30 93 1 27 81
M  V30 94 1 28 69
M  V30 95 1 29 99
M  V30 96 1 30 84
M  V30 97 1 32 64
M  V30 98 1 33 49
M  V30 99 1 34 88
M  V30 100 1 35 48
M  V30 101 1 37 51
M  V30 102 1 38 93
M  V30 103 1 39 78
M  V30 104 1 40 96
M  V30 105 1 42 72
M  V30 106 1 43 90
M  V30 107 1 44 66
M  V30 108 1 45 87
M  V30 END BOND
M  V30 END CTAB
M  END

$$$$
