
     RDKit          3D

  0  0  0  0  0  0  0  0  0  0999 V3000
M  V30 BEGIN CTAB
M  V30 COUNTS 99 108 0 0 0
M  V30 BEGIN ATOM
M  V30 1 Pd -2.7160 -2.9204 0.7154 0
M  V30 2 Pb -3.3716 -3.0737 -0.0244 0
M  V30 3 Pb -2.0550 -2.7808 1.4542 0
M  V30 4 Pb -3.4506 -2.6666 1.3476 0
M  V30 5 Pb -1.9867 -3.1612 0.0735 0
M  V30 6 Pd 7.2137 -2.7576 3.2090 0
M  V30 7 Pb 6.8062 -1.8796 2.9492 0
M  V30 8 Pb 6.7461 -2.7017 4.1089 0
M  V30 9 Pb 7.5666 -2.9247 2.2878 0
M  V30 10 Pb 7.6487 -3.6046 3.5026 0
M  V30 11 Pd -1.9691 4.6630 -5.7025 0
M  V30 12 Pb -2.9515 4.4130 -5.7902 0
M  V30 13 Pb -0.9952 4.8477 -5.5694 0
M  V30 14 Pb -2.1746 5.3290 -4.9854 0
M  V30 15 Pb -1.7543 3.9958 -6.4080 0
M  V30 16 Pd -2.6816 5.6329 1.7505 0
M  V30 17 Pb -2.6685 6.1727 0.9102 0
M  V30 18 Pb -2.7247 5.0119 2.5385 0
M  V30 19 Pb -1.6825 5.6642 1.7774 0
M  V30 20 Pb -3.6757 5.6221 1.7110 0
M  V30 21 Pd 4.0061 3.1481 -1.1443 0
M  V30 22 Pb 4.3547 2.6764 -0.3323 0
M  V30 23 Pb 3.6557 3.6236 -1.9530 0
M  V30 24 Pb 3.5566 3.8086 -0.5439 0
M  V30 25 Pb 4.4149 2.4477 -1.7254 0
M  V30 26 Pd -5.8014 1.5872 2.2844 0
M  V30 27 Pb -5.1126 1.8886 2.9495 0
M  V30 28 Pb -6.4394 1.3480 1.5548 0
M  V30 29 Pb -5.6303 0.6193 2.4853 0
M  V30 30 Pb -6.0181 2.5430 2.1066 0
M  V30 31 Pd -5.8844 0.3310 -5.1398 0
M  V30 32 Pb -5.8869 -0.6057 -4.7965 0
M  V30 33 Pb -6.4691 0.5543 -4.3611 0
M  V30 34 Pb -5.2937 0.0807 -5.8997 0
M  V30 35 Pb -5.7836 1.3068 -5.4051 0
M  V30 36 Pd 4.6858 -4.2589 -1.2975 0
M  V30 37 Pb 4.9178 -3.4629 -1.8529 0
M  V30 38 Pb 4.4034 -5.0283 -0.7217 0
M  V30 39 Pb 5.6350 -4.2520 -0.9715 0
M  V30 40 Pb 3.7348 -4.2075 -1.5998 0
M  V30 41 Pd 3.0594 -5.3716 5.4197 0
M  V30 42 Pb 3.6089 -4.6437 5.8514 0
M  V30 43 Pb 2.3841 -4.6920 5.1293 0
M  V30 44 Pb 2.7161 -6.0224 4.7496 0
M  V30 45 Pb 3.7512 -6.0404 5.6792 0
M  V30 46 Ag 6.5087 -1.2006 2.8204 0
M  V30 47 Fe 5.5633 0.5257 1.4876 0
M  V30 48 Ag 4.6067 2.3449 0.2934 0
M  V30 49 Ag -3.8316 -3.1894 -0.6059 0
M  V30 50 Fe -4.8860 -2.3164 -2.5455 0
M  V30 51 Ag -5.8509 -1.2627 -4.4412 0
M  V30 52 Ag 4.6907 1.8833 -2.1308 0
M  V30 53 Fe 4.9365 -0.4721 -2.2675 0
M  V30 54 Ag 5.0843 -2.8393 -2.2308 0
M  V30 55 Ag -0.9343 5.7139 1.7644 0
M  V30 56 Fe 1.1453 5.0071 0.8618 0
M  V30 57 Ag 3.2004 4.2673 -0.0700 0
M  V30 58 Ag -1.7132 3.4227 -6.8753 0
M  V30 59 Fe -3.0336 1.4793 -7.0462 0
M  V30 60 Ag -4.7841 0.0263 -6.4344 0
M  V30 61 Ag 7.8392 -4.2597 3.7938 0
M  V30 62 Fe 6.4950 -5.8132 4.9404 0
M  V30 63 Ag 4.3776 -6.4276 5.7595 0
M  V30 64 Ag -2.2954 5.8227 -4.4338 0
M  V30 65 Fe -2.4969 6.2369 -2.1045 0
M  V30 66 Ag -2.6788 6.5185 0.2460 0
M  V30 67 Ag -1.4670 -3.3390 -0.4386 0
M  V30 68 Fe 0.7733 -3.7516 -1.1114 0
M  V30 69 Ag 3.0114 -4.1657 -1.7906 0
M  V30 70 Ag 4.0901 -5.5608 -0.2927 0
M  V30 71 Fe 3.2877 -6.1598 1.8606 0
M  V30 72 Ag 2.6326 -6.4251 4.1271 0
M  V30 73 Ag -1.5767 -2.6730 2.0232 0
M  V30 74 Fe 0.1589 -3.4387 3.4542 0
M  V30 75 Ag 1.8938 -4.1696 4.9041 0
M  V30 76 Ag -6.8810 1.2426 0.9596 0
M  V30 77 Fe -6.9583 0.9412 -1.3937 0
M  V30 78 Ag -6.8901 0.6444 -3.7479 0
M  V30 79 Ag -0.2664 4.9589 -5.4297 0
M  V30 80 Fe 1.5832 4.4886 -4.0145 0
M  V30 81 Ag 3.3917 3.9788 -2.5602 0
M  V30 82 Ba -2.7971 4.5120 3.0992 0
M  V30 83 Ga -3.6768 3.3340 3.2834 0
M  V30 84 Ba -4.5834 2.1687 3.4081 0
M  V30 85 Ba 6.3754 -2.6834 4.7790 0
M  V30 86 Ga 5.2278 -3.3901 5.4247 0
M  V30 87 Ba 4.0814 -4.0913 6.0786 0
M  V30 88 Ba -3.6947 4.2391 -5.8671 0
M  V30 89 Ga -4.6514 3.0997 -5.7130 0
M  V30 90 Ba -5.7049 2.0440 -5.5987 0
M  V30 91 Ba -4.4192 5.5883 1.6811 0
M  V30 92 Ga -5.3359 4.4509 1.8232 0
M  V30 93 Ba -6.1797 3.2598 1.9779 0
M  V30 94 Ba 7.7948 -3.1432 1.6063 0
M  V30 95 Ga 7.0788 -3.6533 0.4168 0
M  V30 96 Ba 6.3560 -4.1646 -0.7682 0
M  V30 97 Ba -3.9892 -2.4845 1.8395 0
M  V30 98 Ga -4.7493 -1.2751 2.2203 0
M  V30 99 Ba -5.5474 -0.1096 2.6563 0
M  V30 END ATOM
M  V30 BEGIN BOND
M  V30 1 1 1 2
M  V30 2 1 1 3
M  V30 3 1 1 4
M  V30 4 1 1 5
M  V30 5 1 6 7
M  V30 6 1 6 8
M  V30 7 1 6 9
M  V30 8 1 6 10
M  V30 9 1 11 12
M  V30 10 1 11 13
M  V30 11 1 11 14
M  V30 12 1 11 15
M  V30 13 1 16 17
M  V30 14 1 16 18
M  V30 15 1 16 19
M  V30 16 1 16 20
M  V30 17 1 21 22
M  V30 18 1 21 23
M  V30 19 1 21 24
M  V30 20 1 21 25
M  V30 21 1 26 27
M  V30 22 1 26 28
M  V30 23 1 26 29
M  V30 24 1 26 30
M  V30 25 1 31 32
M  V30 26 1 31 33
M  V30 27 1 31 34
M  V30 28 1 31 35
M  V30 29 1 36 37
M  V30 30 1 36 38
M  V30 31 1 36 39
M  V30 32 1 36 40
M  V30 33 1 41 42
M  V30 34 1 41 43
M  V30 35 1 41 44
M  V30 36 1 41 45
M  V30 37 1 46 47
M  V30 38 1 47 48
M  V30 39 1 49 50
M  V30 40 1 50 51
M  V30 41 1 52 53
M  V30 42 1 53 54
M  V30 43 1 55 56
M  V30 44 1 56 57
M  V30 45 1 58 59
M  V30 46 1 59 60
M  V30 47 1 61 62
M  V30 48 1 62 63
M  V30 49 1 64 65
M  V30 50 1 65 66
M  V30 51 1 67 68
M  V30 52 1 68 69
M  V30 53 1 70 71
M  V30 54 1 71 72
M  V30 55 1 73 74
M  V30 56 1 74 75
M  V30 57 1 76 77
M  V30 58 1 77 78
M  V30 59 1 79 80
M  V30 60 1 80 81
M  V30 61 1 82 83
M  V30 62 1 83 84
M  V30 63 1 85 86
M  V30 64 1 86 87
M  V30 65 1 88 89
M  V30 66 1 89 90
M  V30 67 1 91 92
M  V30 68 1 92 93
M  V30 69 1 94 95
M  V30 70 1 95 96
M  V30 71 1 97 98
M  V30 72 1 98 99
M  V30 73 1 2 49
M  V30 74 1 3 73
M  V30 75 1 4 97
M  V30 76 1 5 67
M  V30 77 1 7 46
M  V30 78 1 8 85
M  V30 79 1 9 94
M  V30 80 1 10 61
M  V30 81 1 12 88
M  V30 82 1 13 79
M  V30 83 1 14 64
M  V30 84 1 15 58
M  V30 85 1 17 66
M  V30 86 1 18 82
M  V30 87 1 19 55
M  V30 88 1 20 91
M  V30 89 1 22 48
M  V30 90 1 23 81
M  V30 91 1 24 57
M  V30 92 1 25 52
M  V30 93 1 27 84
M  V30 94 1 28 76
M  V30 95 1 29 99
M  V30 96 1 30 93
M  V30 97 1 32 51
M  V30 98 1 33 78
M  V30 99 1 34 60
M  V30 100 1 35 90
M  V30 101 1 37 54
M  V30 102 1 38 70
M  V30 103 1 39 96
M  V30 104 1 40 69
M  V30 105 1 42 87
M  V30 106 1 43 75
M  V30 107 1 44 72
M  V30 108 1 45 63
M  V30 END BOND
M  V30 END CTAB
M  END

$$$$
