
     RDKit          3D

  0  0  0  0  0  0  0  0  0  0999 V3000
M  V30 BEGIN CTAB
M  V30 COUNTS 99 108 0 0 0
M  V30 BEGIN ATOM
M  V30 1 Pd -1.8677 0.3848 0.3076 0
M  V30 2 Pb -1.2945 0.9239 0.9334 0
M  V30 3 Pb -2.5752 0.3990 -0.3976 0
M  V30 4 Pb -2.2134 -0.4845 -0.0318 0
M  V30 5 Pb -2.5921 0.3526 1.0130 0
M  V30 6 Pd 4.3309 0.2993 -4.1864 0
M  V30 7 Pb 3.7694 -0.0040 -4.9541 0
M  V30 8 Pb 4.5082 -0.6707 -4.0106 0
M  V30 9 Pb 4.9326 0.5852 -3.4325 0
M  V30 10 Pb 4.0358 1.2344 -4.3847 0
M  V30 11 Pd 0.0462 -1.1243 6.2922 0
M  V30 12 Pb -0.8014 -1.6427 6.1423 0
M  V30 13 Pb -0.4282 -0.2386 6.3279 0
M  V30 14 Pb 0.5482 -1.9776 6.1934 0
M  V30 15 Pb 0.9362 -0.6775 6.3648 0
M  V30 16 Pd -0.2524 -4.9171 -5.0695 0
M  V30 17 Pb 0.7142 -5.0146 -4.8249 0
M  V30 18 Pb -1.2060 -4.6564 -5.2217 0
M  V30 19 Pb -0.5297 -5.3436 -4.2136 0
M  V30 20 Pb 0.0426 -4.3452 -5.8288 0
M  V30 21 Pd -0.5787 -3.8555 2.3540 0
M  V30 22 Pb -1.2460 -3.9721 3.0913 0
M  V30 23 Pb -1.2961 -3.7595 1.6699 0
M  V30 24 Pb 0.0689 -3.4913 1.6827 0
M  V30 25 Pb 0.1424 -4.0136 3.0234 0
M  V30 26 Pd -4.6497 3.8589 2.8965 0
M  V30 27 Pb -5.2663 3.8320 2.1111 0
M  V30 28 Pb -4.2381 4.6798 2.5098 0
M  V30 29 Pb -4.0093 3.8124 3.6665 0
M  V30 30 Pb -4.8474 2.8957 3.0668 0
M  V30 31 Pd 0.1561 3.9807 -2.7932 0
M  V30 32 Pb 0.8504 3.6920 -3.4593 0
M  V30 33 Pb 0.8349 4.6292 -2.4702 0
M  V30 34 Pb -0.5017 3.2777 -3.0815 0
M  V30 35 Pb -0.4870 4.3813 -2.1309 0
M  V30 36 Pd -1.5949 -1.6869 -2.2200 0
M  V30 37 Pb -1.6435 -0.7436 -2.5764 0
M  V30 38 Pb -0.8000 -1.5303 -1.6323 0
M  V30 39 Pb -1.5802 -2.6360 -1.9010 0
M  V30 40 Pb -2.3008 -1.9547 -2.8775 0
M  V30 41 Pd 4.7538 3.1786 2.5348 0
M  V30 42 Pb 5.5402 2.8532 2.0136 0
M  V30 43 Pb 3.8294 3.3436 2.8743 0
M  V30 44 Pb 4.6200 3.8791 1.8429 0
M  V30 45 Pb 4.8546 2.5205 3.2762 0
M  V30 46 Ag 4.5205 -1.4195 -3.9432 0
M  V30 47 Fe 3.1102 -3.3117 -4.2340 0
M  V30 48 Ag 1.4360 -4.9549 -4.6221 0
M  V30 49 Ag -0.7427 0.4484 6.3283 0
M  V30 50 Fe -2.1365 2.0906 5.3151 0
M  V30 51 Ag -3.5481 3.6823 4.2477 0
M  V30 52 Ag -3.1834 0.5665 -0.7906 0
M  V30 53 Fe -4.8267 2.1229 -0.1382 0
M  V30 54 Ag -5.5965 3.6673 1.4656 0
M  V30 55 Ag -0.9163 1.3669 1.4150 0
M  V30 56 Fe 1.0574 2.3886 2.2636 0
M  V30 57 Ag 3.0954 3.3485 3.0274 0
M  V30 58 Ag -3.8648 5.1575 2.0707 0
M  V30 59 Fe -2.3746 5.0339 0.2200 0
M  V30 60 Ag -0.8999 4.7696 -1.6291 0
M  V30 61 Ag 5.4039 0.7789 -2.8740 0
M  V30 62 Fe 5.8079 1.6626 -0.7020 0
M  V30 63 Ag 5.9954 2.5774 1.4859 0
M  V30 64 Ag 3.3579 -0.2863 -5.5114 0
M  V30 65 Fe 1.8278 -2.0007 -6.0935 0
M  V30 66 Ag 0.3283 -3.8264 -6.2804 0
M  V30 67 Ag 1.3841 5.0336 -2.1785 0
M  V30 68 Fe 3.0075 4.8943 -0.4648 0
M  V30 69 Ag 4.4663 4.3918 1.3273 0
M  V30 70 Ag 1.6406 -0.4233 6.3516 0
M  V30 71 Fe 3.3029 0.8056 5.1870 0
M  V30 72 Ag 4.8152 2.0864 3.8826 0
M  V30 73 Ba -1.3795 -2.1054 5.9915 0
M  V30 74 Ga -1.6044 -3.0391 4.8626 0
M  V30 75 Ba -1.7120 -3.9265 3.6806 0
M  V30 76 Ba -1.8995 -4.3706 -5.2463 0
M  V30 77 Ga -2.4275 -3.3033 -4.3729 0
M  V30 78 Ba -2.7553 -2.2376 -3.4046 0
M  V30 79 Ba -3.1453 0.2959 1.5333 0
M  V30 80 Ga -4.0187 1.1995 2.3240 0
M  V30 81 Ba -4.8666 2.1458 3.0919 0
M  V30 82 Ba -0.7519 -5.5228 -3.5251 0
M  V30 83 Ga -1.1803 -4.5226 -2.5345 0
M  V30 84 Ba -1.5660 -3.3632 -1.7138 0
M  V30 85 Ba -1.0038 2.7577 -3.2992 0
M  V30 86 Ga -1.3233 1.3300 -3.0505 0
M  V30 87 Ba -1.7755 -0.0764 -2.9141 0
M  V30 88 Ba 0.5005 -3.0893 1.2151 0
M  V30 89 Ga 0.1964 -2.3092 -0.0047 0
M  V30 90 Ba -0.1700 -1.5518 -1.2216 0
M  V30 91 Ba -2.4799 -1.1549 -0.2169 0
M  V30 92 Ga -2.1880 -2.4513 0.4039 0
M  V30 93 Ba -1.7944 -3.6680 1.1226 0
M  V30 94 Ba 0.9323 -2.5964 6.0389 0
M  V30 95 Ga 0.8474 -3.4228 4.8295 0
M  V30 96 Ba 0.6381 -4.1404 3.5668 0
M  V30 97 Ba 3.7446 1.8925 -4.6000 0
M  V30 98 Ga 2.5736 2.7191 -4.2320 0
M  V30 99 Ba 1.4267 3.6072 -3.9403 0
M  V30 END ATOM
M  V30 BEGIN BOND
M  V30 1 1 1 2
M  V30 2 1 1 3
M  V30 3 1 1 4
M  V30 4 1 1 5
M  V30 5 1 6 7
M  V30 6 1 6 8
M  V30 7 1 6 9
M  V30 8 1 6 10
M  V30 9 1 11 12
M  V30 10 1 11 13
M  V30 11 1 11 14
M  V30 12 1 11 15
M  V30 13 1 16 17
M  V30 14 1 16 18
M  V30 15 1 16 19
M  V30 16 1 16 20
M  V30 17 1 21 22
M  V30 18 1 21 23
M  V30 19 1 21 24
M  V30 20 1 21 25
M  V30 21 1 26 27
M  V30 22 1 26 28
M  V30 23 1 26 29
M  V30 24 1 26 30
M  V30 25 1 31 32
M  V30 26 1 31 33
M  V30 27 1 31 34
M  V30 28 1 31 35
M  V30 29 1 36 37
M  V30 30 1 36 38
M  V30 31 1 36 39
M  V30 32 1 36 40
M  V30 33 1 41 42
M  V30 34 1 41 43
M  V30 35 1 41 44
M  V30 36 1 41 45
M  V30 37 1 46 47
M  V30 38 1 47 48
M  V30 39 1 49 50
M  V30 40 1 50 51
M  V30 41 1 52 53
M  V30 42 1 53 54
M  V30 43 1 55 56
M  V30 44 1 56 57
M  V30 45 1 58 59
M  V30 46 1 59 60
M  V30 47 1 61 62
M  V30 48 1 62 63
M  V30 49 1 64 65
M  V30 50 1 65 66
M  V30 51 1 67 68
M  V30 52 1 68 69
M  V30 53 1 70 71
M  V30 54 1 71 72
M  V30 55 1 73 74
M  V30 56 1 74 75
M  V30 57 1 76 77
M  V30 58 1 77 78
M  V30 59 1 79 80
M  V30 60 1 80 81
M  V30 61 1 82 83
M  V30 62 1 83 84
M  V30 63 1 85 86
M  V30 64 1 86 87
M  V30 65 1 88 89
M  V30 66 1 89 90
M  V30 67 1 91 92
M  V30 68 1 92 93
M  V30 69 1 94 95
M  V30 70 1 95 96
M  V30 71 1 97 98
M  V30 72 1 98 99
M  V30 73 1 2 55
M  V30 74 1 3 52
M  V30 75 1 4 91
M  V30 76 1 5 79
M  V30 77 1 7 64
M  V30 78 1 8 46
M  V30 79 1 9 61
M  V30 80 1 10 97
M  V30 81 1 12 73
M  V30 82 1 13 49
M  V30 83 1 14 94
M  V30 84 1 15 70
M  V30 85 1 17 48
M  V30 86 1 18 76
M  V30 87 1 19 82
M  V30 88 1 20 66
M  V30 89 1 22 75
M  V30 90 1 23 93
M  V30 91 1 24 88
M  V30 92 1 25 96
M  V30 93 1 27 54
M  V30 94 1 28 58
M  V30 95 1 29 51
M  V30 96 1 30 81
M  V30 97 1 32 99
M  V30 98 1 33 67
M  V30 99 1 34 85
M  V30 100 1 35 60
M  V30 101 1 37 87
M  V30 102 1 38 90
M  V30 103 1 39 84
M  V30 104 1 40 78
M  V30 105 1 42 63
M  V30 106 1 43 57
M  V30 107 1 44 69
M  V30 108 1 45 72
M  V30 END BOND
M  V30 END CTAB
M  END

$$$$
