
     RDKit          3D

  0  0  0  0  0  0  0  0  0  0999 V3000
M  V30 BEGIN CTAB
M  V30 COUNTS 99 108 0 0 0
M  V30 BEGIN ATOM
M  V30 1 Pd -6.2154 -1.1967 1.0149 0
M  V30 2 Pb -6.2704 -0.6403 1.8530 0
M  V30 3 Pb -6.6190 -0.4705 0.4591 0
M  V30 4 Pb -6.1658 -1.7605 0.1948 0
M  V30 5 Pb -5.7851 -1.9589 1.5246 0
M  V30 6 Pd 6.5842 1.1291 3.1066 0
M  V30 7 Pb 5.8516 0.5418 3.4785 0
M  V30 8 Pb 5.9022 1.7005 2.6173 0
M  V30 9 Pb 7.3094 1.6237 2.6377 0
M  V30 10 Pb 7.2477 0.5091 3.5186 0
M  V30 11 Pd 4.3242 -3.8546 1.8617 0
M  V30 12 Pb 4.2268 -3.1375 2.5680 0
M  V30 13 Pb 3.5273 -3.5254 1.3616 0
M  V30 14 Pb 5.1625 -4.1504 2.3133 0
M  V30 15 Pb 4.4216 -4.4652 1.0810 0
M  V30 16 Pd -1.3906 -4.1425 1.2782 0
M  V30 17 Pb -0.5267 -3.8976 0.8458 0
M  V30 18 Pb -1.7291 -4.5390 0.4296 0
M  V30 19 Pb -2.3158 -4.2158 1.6756 0
M  V30 20 Pb -1.1172 -3.6631 2.1046 0
M  V30 21 Pd -3.2359 2.4863 3.9455 0
M  V30 22 Pb -2.3472 2.9087 3.6948 0
M  V30 23 Pb -2.7552 1.6338 4.1332 0
M  V30 24 Pb -4.1229 2.0345 4.0739 0
M  V30 25 Pb -3.6759 3.3700 3.8172 0
M  V30 26 Pd 1.5085 -2.1755 -4.5331 0
M  V30 27 Pb 2.0028 -2.8920 -4.0346 0
M  V30 28 Pb 1.0209 -1.4990 -5.0707 0
M  V30 29 Pb 2.3609 -1.6881 -4.7328 0
M  V30 30 Pb 0.6040 -2.5519 -4.2930 0
M  V30 31 Pd 4.0764 1.9455 -2.0550 0
M  V30 32 Pb 4.0826 2.3145 -1.1105 0
M  V30 33 Pb 5.0456 2.1647 -2.1160 0
M  V30 34 Pb 3.0871 1.7974 -1.9975 0
M  V30 35 Pb 4.1239 1.4766 -2.9423 0
M  V30 36 Pd -4.9966 0.8576 -3.9578 0
M  V30 37 Pb -4.2860 0.8592 -4.6506 0
M  V30 38 Pb -5.6992 0.9016 -3.2415 0
M  V30 39 Pb -4.7706 -0.1105 -3.8057 0
M  V30 40 Pb -5.0148 1.8475 -4.0669 0
M  V30 41 Pd -0.6178 4.8187 -0.5057 0
M  V30 42 Pb -1.0880 5.6130 -0.1329 0
M  V30 43 Pb -1.0572 5.0237 -1.3779 0
M  V30 44 Pb -0.3596 4.5553 0.4367 0
M  V30 45 Pb -0.2366 3.9631 -0.8734 0
M  V30 46 Ag -1.0007 -3.2333 2.7000 0
M  V30 47 Fe -1.6176 -1.1241 3.5842 0
M  V30 48 Ag -2.3615 1.0158 4.2768 0
M  V30 49 Ag -6.0142 -2.2340 -0.3575 0
M  V30 50 Fe -4.2045 -3.6991 -0.7287 0
M  V30 51 Ag -2.1399 -4.6884 -0.1685 0
M  V30 52 Ag 7.7331 1.9386 2.1183 0
M  V30 53 Fe 7.1772 2.3430 -0.1365 0
M  V30 54 Ag 5.7585 2.3498 -2.0201 0
M  V30 55 Ag 7.6292 -0.0873 3.7450 0
M  V30 56 Fe 7.1280 -2.3738 3.4466 0
M  V30 57 Ag 5.8094 -4.1735 2.6782 0
M  V30 58 Ag -3.8596 4.0687 3.6485 0
M  V30 59 Fe -2.9756 5.5344 2.0293 0
M  V30 60 Ag -1.5501 6.0641 0.2303 0
M  V30 61 Ag -0.1144 -2.7338 -4.1260 0
M  V30 62 Fe -2.3306 -1.8794 -3.8947 0
M  V30 63 Ag -4.4482 -0.7919 -3.7279 0
M  V30 64 Ag 0.5950 -1.0280 -5.4538 0
M  V30 65 Fe -1.5328 0.0019 -5.4390 0
M  V30 66 Ag -3.7118 0.8616 -5.1202 0
M  V30 67 Ag 4.3797 -4.7855 0.4077 0
M  V30 68 Fe 3.4300 -4.2330 -1.6981 0
M  V30 69 Ag 2.3887 -3.4310 -3.6772 0
M  V30 70 Ag -4.8332 2.5689 -4.1259 0
M  V30 71 Fe -3.2341 4.0387 -3.1746 0
M  V30 72 Ag -1.5195 5.1335 -1.9558 0
M  V30 73 Ba -6.9155 0.0384 -0.0053 0
M  V30 74 Ga -6.5595 0.5119 -1.3596 0
M  V30 75 Ba -6.2290 1.0028 -2.7141 0
M  V30 76 Ba 5.3151 0.0743 3.7461 0
M  V30 77 Ga 4.7519 -1.2582 3.3921 0
M  V30 78 Ba 4.1503 -2.5861 3.0871 0
M  V30 79 Ba 2.9790 -3.3169 0.8988 0
M  V30 80 Ga 1.5256 -3.4932 0.7493 0
M  V30 81 Ba 0.0785 -3.6148 0.5107 0
M  V30 82 Ba 2.3417 1.7065 -1.9557 0
M  V30 83 Ga 1.1868 2.5340 -1.5392 0
M  V30 84 Ba -0.0232 3.2900 -1.1441 0
M  V30 85 Ba -6.3336 -0.2471 2.4972 0
M  V30 86 Ga -5.5441 0.7199 3.2972 0
M  V30 87 Ba -4.7906 1.6886 4.1294 0
M  V30 88 Ba -5.4892 -2.5645 1.8820 0
M  V30 89 Ga -4.2329 -3.3656 1.9091 0
M  V30 90 Ba -3.0086 -4.2115 1.9887 0
M  V30 91 Ba 5.3896 2.1392 2.2563 0
M  V30 92 Ga 4.7710 2.3180 0.9086 0
M  V30 93 Ba 4.0916 2.5829 -0.3949 0
M  V30 94 Ba -1.6659 3.1971 3.4982 0
M  V30 95 Ga -0.9752 3.7791 2.3086 0
M  V30 96 Ba -0.2194 4.3691 1.1633 0
M  V30 97 Ba 2.9571 -1.2559 -4.8877 0
M  V30 98 Ga 3.5820 -0.0865 -4.2292 0
M  V30 99 Ba 4.2145 1.0846 -3.5811 0
M  V30 END ATOM
M  V30 BEGIN BOND
M  V30 1 1 1 2
M  V30 2 1 1 3
M  V30 3 1 1 4
M  V30 4 1 1 5
M  V30 5 1 6 7
M  V30 6 1 6 8
M  V30 7 1 6 9
M  V30 8 1 6 10
M  V30 9 1 11 12
M  V30 10 1 11 13
M  V30 11 1 11 14
M  V30 12 1 11 15
M  V30 13 1 16 17
M  V30 14 1 16 18
M  V30 15 1 16 19
M  V30 16 1 16 20
M  V30 17 1 21 22
M  V30 18 1 21 23
M  V30 19 1 21 24
M  V30 20 1 21 25
M  V30 21 1 26 27
M  V30 22 1 26 28
M  V30 23 1 26 29
M  V30 24 1 26 30
M  V30 25 1 31 32
M  V30 26 1 31 33
M  V30 27 1 31 34
M  V30 28 1 31 35
M  V30 29 1 36 37
M  V30 30 1 36 38
M  V30 31 1 36 39
M  V30 32 1 36 40
M  V30 33 1 41 42
M  V30 34 1 41 43
M  V30 35 1 41 44
M  V30 36 1 41 45
M  V30 37 1 46 47
M  V30 38 1 47 48
M  V30 39 1 49 50
M  V30 40 1 50 51
M  V30 41 1 52 53
M  V30 42 1 53 54
M  V30 43 1 55 56
M  V30 44 1 56 57
M  V30 45 1 58 59
M  V30 46 1 59 60
M  V30 47 1 61 62
M  V30 48 1 62 63
M  V30 49 1 64 65
M  V30 50 1 65 66
M  V30 51 1 67 68
M  V30 52 1 68 69
M  V30 53 1 70 71
M  V30 54 1 71 72
M  V30 55 1 73 74
M  V30 56 1 74 75
M  V30 57 1 76 77
M  V30 58 1 77 78
M  V30 59 1 79 80
M  V30 60 1 80 81
M  V30 61 1 82 83
M  V30 62 1 83 84
M  V30 63 1 85 86
M  V30 64 1 86 87
M  V30 65 1 88 89
M  V30 66 1 89 90
M  V30 67 1 91 92
M  V30 68 1 92 93
M  V30 69 1 94 95
M  V30 70 1 95 96
M  V30 71 1 97 98
M  V30 72 1 98 99
M  V30 73 1 2 85
M  V30 74 1 3 73
M  V30 75 1 4 49
M  V30 76 1 5 88
M  V30 77 1 7 76
M  V30 78 1 8 91
M  V30 79 1 9 52
M  V30 80 1 10 55
M  V30 81 1 12 78
M  V30 82 1 13 79
M  V30 83 1 14 57
M  V30 84 1 15 67
M  V30 85 1 17 81
M  V30 86 1 18 51
M  V30 87 1 19 90
M  V30 88 1 20 46
M  V30 89 1 22 94
M  V30 90 1 23 48
M  V30 91 1 24 87
M  V30 92 1 25 58
M  V30 93 1 27 69
M  V30 94 1 28 64
M  V30 95 1 29 97
M  V30 96 1 30 61
M  V30 97 1 32 93
M  V30 98 1 33 54
M  V30 99 1 34 82
M  V30 100 1 35 99
M  V30 101 1 37 66
M  V30 102 1 38 75
M  V30 103 1 39 63
M  V30 104 1 40 70
M  V30 105 1 42 60
M  V30 106 1 43 72
M  V30 107 1 44 96
M  V30 108 1 45 84
M  V30 END BOND
M  V30 END CTAB
M  END

$$$$
