
     RDKit          3D

  0  0  0  0  0  0  0  0  0  0999 V3000
M  V30 BEGIN CTAB
M  V30 COUNTS 99 108 0 0 0
M  V30 BEGIN ATOM
M  V30 1 Pd 2.6941 -0.9657 1.9346 0
M  V30 2 Pb 2.9256 -0.0005 2.0769 0
M  V30 3 Pb 3.6716 -1.1698 1.9303 0
M  V30 4 Pb 1.7178 -0.7389 1.8910 0
M  V30 5 Pb 2.5200 -1.9412 1.7901 0
M  V30 6 Pd -2.7638 -2.7891 2.7396 0
M  V30 7 Pb -3.3712 -3.5121 3.0573 0
M  V30 8 Pb -3.0854 -2.9550 1.7896 0
M  V30 9 Pb -2.1823 -2.0319 2.4336 0
M  V30 10 Pb -2.6215 -2.5387 3.6970 0
M  V30 11 Pd -7.1167 -1.1871 -0.0314 0
M  V30 12 Pb -6.7721 -0.4975 -0.6691 0
M  V30 13 Pb -6.4024 -1.8346 -0.3355 0
M  V30 14 Pb -7.5889 -0.4954 0.5072 0
M  V30 15 Pb -7.4947 -1.8999 0.5526 0
M  V30 16 Pd 0.5881 4.1483 3.0926 0
M  V30 17 Pb 0.5260 3.6733 3.9669 0
M  V30 18 Pb 0.6717 4.6329 2.2227 0
M  V30 19 Pb -0.3227 4.5340 3.2544 0
M  V30 20 Pb 1.4794 3.7271 2.9273 0
M  V30 21 Pd -1.9710 -0.4939 -5.1833 0
M  V30 22 Pb -2.5054 -1.2456 -4.8173 0
M  V30 23 Pb -1.4427 0.2816 -5.5258 0
M  V30 24 Pb -2.7270 0.1053 -4.9274 0
M  V30 25 Pb -1.1758 -1.1198 -5.3068 0
M  V30 26 Pd -3.4993 1.8590 5.2417 0
M  V30 27 Pb -3.4526 2.8009 4.9054 0
M  V30 28 Pb -2.5761 1.9576 5.6050 0
M  V30 29 Pb -4.4285 1.7803 4.8691 0
M  V30 30 Pb -3.4573 0.9036 5.5405 0
M  V30 31 Pd 6.2514 -0.3665 -1.9352 0
M  V30 32 Pb 6.4186 0.5730 -1.6315 0
M  V30 33 Pb 6.0477 -1.2917 -2.2554 0
M  V30 34 Pb 6.2136 -0.0326 -2.8762 0
M  V30 35 Pb 6.3099 -0.6990 -0.9933 0
M  V30 36 Pd 1.8566 -3.9865 -2.3550 0
M  V30 37 Pb 2.8248 -3.8216 -2.5593 0
M  V30 38 Pb 1.5709 -3.6308 -3.2673 0
M  V30 39 Pb 2.0763 -4.2539 -1.4180 0
M  V30 40 Pb 0.9194 -4.2560 -2.1740 0
M  V30 41 Pd 3.9678 3.8320 -3.6744 0
M  V30 42 Pb 3.3945 4.4135 -3.0985 0
M  V30 43 Pb 4.5152 3.2035 -4.2231 0
M  V30 44 Pb 4.6820 3.8137 -2.9740 0
M  V30 45 Pb 3.2352 3.7744 -4.3494 0
M  V30 46 Ag 0.7768 4.9822 1.5681 0
M  V30 47 Fe 1.8358 4.9528 -0.5565 0
M  V30 48 Ag 2.9457 4.8127 -2.6505 0
M  V30 49 Ag -6.5168 -0.0201 -1.1888 0
M  V30 50 Fe -4.9526 0.3498 -2.9364 0
M  V30 51 Ag -3.2955 0.4909 -4.6307 0
M  V30 52 Ag -1.0431 0.8717 -5.7554 0
M  V30 53 Fe 0.7985 2.3153 -5.3610 0
M  V30 54 Ag 2.6738 3.6695 -4.8321 0
M  V30 55 Ag -3.9560 -3.9383 3.2145 0
M  V30 56 Fe -6.1379 -3.6560 2.3844 0
M  V30 57 Ag -7.6310 -2.4687 1.0084 0
M  V30 58 Ag -2.7838 -1.8270 -4.4583 0
M  V30 59 Fe -1.6963 -3.4285 -3.1251 0
M  V30 60 Ag 0.1975 -4.4075 -2.1340 0
M  V30 61 Ag -7.7573 -0.0013 1.0416 0
M  V30 62 Fe -6.5664 0.9740 2.8518 0
M  V30 63 Ag -5.1165 1.7671 4.5602 0
M  V30 64 Ba 6.5181 1.2922 -1.4376 0
M  V30 65 Ga 5.8905 2.5402 -1.9163 0
M  V30 66 Ba 5.2143 3.7395 -2.4499 0
M  V30 67 Ba 0.4586 3.3209 4.6220 0
M  V30 68 Ga -0.6865 2.6675 5.2724 0
M  V30 69 Ba -1.8773 2.0341 5.8572 0
M  V30 70 Ba 4.4062 -1.3084 1.8931 0
M  V30 71 Ga 5.3957 -1.1369 0.8138 0
M  V30 72 Ba 6.3574 -0.9517 -0.2882 0
M  V30 73 Ba 2.4615 -2.6826 1.6812 0
M  V30 74 Ga 2.3192 -3.5602 0.5032 0
M  V30 75 Ba 2.1740 -4.4132 -0.6924 0
M  V30 76 Ba -1.0158 4.7905 3.3952 0
M  V30 77 Ga -2.2086 4.1725 4.0110 0
M  V30 78 Ba -3.3652 3.4965 4.6349 0
M  V30 79 Ba -2.6318 -2.3369 4.4199 0
M  V30 80 Ga -2.9703 -1.0726 5.1063 0
M  V30 81 Ba -3.3138 0.2016 5.7716 0
M  V30 82 Ba 5.8921 -1.9789 -2.5128 0
M  V30 83 Ga 4.6994 -2.8463 -2.5994 0
M  V30 84 Ba 3.5578 -3.7749 -2.7263 0
M  V30 85 Ba -3.3771 -3.0793 1.0907 0
M  V30 86 Ga -4.5920 -2.6777 0.3144 0
M  V30 87 Ba -5.8013 -2.2846 -0.4750 0
M  V30 88 Ba 3.1639 0.7060 2.1802 0
M  V30 89 Ga 2.6216 2.0440 2.4897 0
M  V30 90 Ba 2.1447 3.4074 2.7964 0
M  V30 91 Ba 6.1881 0.2455 -3.5714 0
M  V30 92 Ga 5.5690 1.4603 -4.1276 0
M  V30 93 Ba 4.9178 2.6953 -4.5956 0
M  V30 94 Ba -0.5763 -1.5932 -5.4000 0
M  V30 95 Ga 0.3611 -2.4624 -4.6168 0
M  V30 96 Ba 1.3609 -3.3650 -3.9585 0
M  V30 97 Ba 1.0006 -0.5185 1.8269 0
M  V30 98 Ga -0.3701 -1.0317 2.0364 0
M  V30 99 Ba -1.7818 -1.4364 2.2074 0
M  V30 END ATOM
M  V30 BEGIN BOND
M  V30 1 1 1 2
M  V30 2 1 1 3
M  V30 3 1 1 4
M  V30 4 1 1 5
M  V30 5 1 6 7
M  V30 6 1 6 8
M  V30 7 1 6 9
M  V30 8 1 6 10
M  V30 9 1 11 12
M  V30 10 1 11 13
M  V30 11 1 11 14
M  V30 12 1 11 15
M  V30 13 1 16 17
M  V30 14 1 16 18
M  V30 15 1 16 19
M  V30 16 1 16 20
M  V30 17 1 21 22
M  V30 18 1 21 23
M  V30 19 1 21 24
M  V30 20 1 21 25
M  V30 21 1 26 27
M  V30 22 1 26 28
M  V30 23 1 26 29
M  V30 24 1 26 30
M  V30 25 1 31 32
M  V30 26 1 31 33
M  V30 27 1 31 34
M  V30 28 1 31 35
M  V30 29 1 36 37
M  V30 30 1 36 38
M  V30 31 1 36 39
M  V30 32 1 36 40
M  V30 33 1 41 42
M  V30 34 1 41 43
M  V30 35 1 41 44
M  V30 36 1 41 45
M  V30 37 1 46 47
M  V30 38 1 47 48
M  V30 39 1 49 50
M  V30 40 1 50 51
M  V30 41 1 52 53
M  V30 42 1 53 54
M  V30 43 1 55 56
M  V30 44 1 56 57
M  V30 45 1 58 59
M  V30 46 1 59 60
M  V30 47 1 61 62
M  V30 48 1 62 63
M  V30 49 1 64 65
M  V30 50 1 65 66
M  V30 51 1 67 68
M  V30 52 1 68 69
M  V30 53 1 70 71
M  V30 54 1 71 72
M  V30 55 1 73 74
M  V30 56 1 74 75
M  V30 57 1 76 77
M  V30 58 1 77 78
M  V30 59 1 79 80
M  V30 60 1 80 81
M  V30 61 1 82 83
M  V30 62 1 83 84
M  V30 63 1 85 86
M  V30 64 1 86 87
M  V30 65 1 88 89
M  V30 66 1 89 90
M  V30 67 1 91 92
M  V30 68 1 92 93
M  V30 69 1 94 95
M  V30 70 1 95 96
M  V30 71 1 97 98
M  V30 72 1 98 99
M  V30 73 1 2 88
M  V30 74 1 3 70
M  V30 75 1 4 97
M  V30 76 1 5 73
M  V30 77 1 7 55
M  V30 78 1 8 85
M  V30 79 1 9 99
M  V30 80 1 10 79
M  V30 81 1 12 49
M  V30 82 1 13 87
M  V30 83 1 14 61
M  V30 84 1 15 57
M  V30 85 1 17 67
M  V30 86 1 18 46
M  V30 87 1 19 76
M  V30 88 1 20 90
M  V30 89 1 22 58
M  V30 90 1 23 52
M  V30 91 1 24 51
M  V30 92 1 25 94
M  V30 93 1 27 78
M  V30 94 1 28 69
M  V30 95 1 29 63
M  V30 96 1 30 81
M  V30 97 1 32 64
M  V30 98 1 33 82
M  V30 99 1 34 91
M  V30 100 1 35 72
M  V30 101 1 37 84
M  V30 102 1 38 96
M  V30 103 1 39 75
M  V30 104 1 40 60
M  V30 105 1 42 48
M  V30 106 1 43 93
M  V30 107 1 44 66
M  V30 108 1 45 54
M  V30 END BOND
M  V30 END CTAB
M  END

$$$$
