
     RDKit          3D

  0  0  0  0  0  0  0  0  0  0999 V3000
M  V30 BEGIN CTAB
M  V30 COUNTS 99 108 0 0 0
M  V30 BEGIN ATOM
M  V30 1 Pd 2.4494 -1.7952 -3.7228 0
M  V30 2 Pb 1.9753 -1.4686 -4.5423 0
M  V30 3 Pb 2.1294 -2.7334 -3.8748 0
M  V30 4 Pb 2.8743 -0.9005 -3.6079 0
M  V30 5 Pb 2.8616 -2.0649 -2.8528 0
M  V30 6 Pd 4.7740 3.5536 1.1657 0
M  V30 7 Pb 4.5406 3.8673 2.0968 0
M  V30 8 Pb 4.7320 2.6186 1.5105 0
M  V30 9 Pb 4.8839 3.2292 0.2301 0
M  V30 10 Pb 4.7997 4.4895 0.8137 0
M  V30 11 Pd 0.2746 3.3784 4.5256 0
M  V30 12 Pb -0.6704 3.0831 4.3861 0
M  V30 13 Pb 0.5760 2.4455 4.7045 0
M  V30 14 Pb 0.0303 4.2987 4.2268 0
M  V30 15 Pb 1.2394 3.6790 4.5646 0
M  V30 16 Pd -0.7498 2.5815 -4.7501 0
M  V30 17 Pb 0.1233 3.0653 -4.8588 0
M  V30 18 Pb -1.6371 2.1446 -4.5927 0
M  V30 19 Pb -1.1308 3.3993 -4.3254 0
M  V30 20 Pb -0.3844 1.7667 -5.2126 0
M  V30 21 Pd -3.3896 -1.1447 4.0920 0
M  V30 22 Pb -2.4336 -1.3428 4.3815 0
M  V30 23 Pb -4.2913 -1.0078 3.6856 0
M  V30 24 Pb -3.2079 -0.1680 3.9684 0
M  V30 25 Pb -3.6376 -2.0820 4.3027 0
M  V30 26 Pd 1.3598 6.4422 -1.8384 0
M  V30 27 Pb 0.4283 6.3051 -2.1636 0
M  V30 28 Pb 1.7012 6.0158 -2.6808 0
M  V30 29 Pb 0.9954 6.7862 -0.9740 0
M  V30 30 Pb 2.2884 6.5866 -1.4932 0
M  V30 31 Pd -0.8684 -5.7567 -1.6147 0
M  V30 32 Pb -1.5832 -5.7478 -0.9073 0
M  V30 33 Pb -0.2277 -6.2329 -1.0094 0
M  V30 34 Pb -1.5015 -5.3179 -2.2436 0
M  V30 35 Pb -0.1749 -5.7082 -2.3323 0
M  V30 36 Pd 1.1164 -4.7822 3.1398 0
M  V30 37 Pb 1.3321 -5.5654 2.5613 0
M  V30 38 Pb 0.4367 -5.3351 3.6063 0
M  V30 39 Pb 1.7899 -4.2558 2.6226 0
M  V30 40 Pb 0.8098 -3.9649 3.6665 0
M  V30 41 Pd -4.8895 -2.4265 -0.8311 0
M  V30 42 Pb -5.0399 -1.6191 -1.3991 0
M  V30 43 Pb -4.5021 -2.8499 -1.6438 0
M  V30 44 Pb -4.6410 -3.2428 -0.3017 0
M  V30 45 Pb -5.3214 -1.9966 -0.0332 0
M  V30 46 Ag -2.3220 1.8861 -4.4211 0
M  V30 47 Fe -3.7363 0.4398 -3.1752 0
M  V30 48 Ag -5.0637 -1.0535 -1.8897 0
M  V30 49 Ag 3.1359 -2.2113 -2.1703 0
M  V30 50 Fe 2.7626 -3.0527 0.0187 0
M  V30 51 Ag 2.2913 -3.9197 2.1786 0
M  V30 52 Ag 4.5833 1.9777 1.8582 0
M  V30 53 Fe 2.8799 1.3857 3.3803 0
M  V30 54 Ag 0.9548 1.8082 4.6765 0
M  V30 55 Ag -3.7139 -2.7970 4.4736 0
M  V30 56 Fe -2.2341 -4.6226 4.3951 0
M  V30 57 Ag -0.1658 -5.6307 3.9133 0
M  V30 58 Ag 3.2596 -0.2677 -3.5100 0
M  V30 59 Fe 4.0964 1.3885 -2.0334 0
M  V30 60 Ag 4.8842 2.9972 -0.4794 0
M  V30 61 Ag -0.0872 4.9655 3.9092 0
M  V30 62 Fe 0.2459 6.1111 1.8583 0
M  V30 63 Ag 0.7132 6.9679 -0.3046 0
M  V30 64 Ba -2.1361 -5.7136 -0.3932 0
M  V30 65 Ga -3.2756 -4.7957 -0.1542 0
M  V30 66 Ba -4.4068 -3.8617 0.0609 0
M  V30 67 Ba 0.7621 3.4627 -4.9151 0
M  V30 68 Ga 1.3584 4.5611 -4.1200 0
M  V30 69 Ba 1.9291 5.6584 -3.3047 0
M  V30 70 Ba 1.9616 -3.4552 -4.0080 0
M  V30 71 Ga 1.1308 -4.5327 -3.4338 0
M  V30 72 Ba 0.3154 -5.6398 -2.8950 0
M  V30 73 Ba -1.3794 2.9029 4.2210 0
M  V30 74 Ga -2.2237 1.7004 4.0812 0
M  V30 75 Ba -3.1681 0.5798 3.9067 0
M  V30 76 Ba -1.4225 4.0139 -4.0162 0
M  V30 77 Ga -0.8664 5.1107 -3.2108 0
M  V30 78 Ba -0.2666 6.1861 -2.4078 0
M  V30 79 Ba 4.8184 5.1764 0.5126 0
M  V30 80 Ga 3.8976 5.9469 -0.3459 0
M  V30 81 Ba 2.9708 6.7101 -1.2046 0
M  V30 82 Ba 0.2612 -6.6031 -0.5743 0
M  V30 83 Ga 0.8661 -6.3876 0.7531 0
M  V30 84 Ba 1.4447 -6.1299 2.0847 0
M  V30 85 Ba -4.9391 -0.9320 3.3175 0
M  V30 86 Ga -5.3182 -1.2986 1.9376 0
M  V30 87 Ba -5.6698 -1.6754 0.5532 0
M  V30 88 Ba 4.3441 4.0727 2.8019 0
M  V30 89 Ga 3.1355 3.9840 3.6678 0
M  V30 90 Ba 1.9602 3.9240 4.5805 0
M  V30 91 Ba 1.5990 -1.1949 -5.1328 0
M  V30 92 Ga 0.7413 -0.0080 -5.3480 0
M  V30 93 Ba -0.1209 1.1698 -5.5935 0
M  V30 94 Ba -1.9785 -4.9943 -2.7144 0
M  V30 95 Ga -3.1034 -4.0742 -2.5136 0
M  V30 96 Ba -4.2188 -3.1554 -2.2614 0
M  V30 97 Ba -1.7090 -1.4961 4.5866 0
M  V30 98 Ga -0.6000 -2.4578 4.2854 0
M  V30 99 Ba 0.5830 -3.3529 4.0739 0
M  V30 END ATOM
M  V30 BEGIN BOND
M  V30 1 1 1 2
M  V30 2 1 1 3
M  V30 3 1 1 4
M  V30 4 1 1 5
M  V30 5 1 6 7
M  V30 6 1 6 8
M  V30 7 1 6 9
M  V30 8 1 6 10
M  V30 9 1 11 12
M  V30 10 1 11 13
M  V30 11 1 11 14
M  V30 12 1 11 15
M  V30 13 1 16 17
M  V30 14 1 16 18
M  V30 15 1 16 19
M  V30 16 1 16 20
M  V30 17 1 21 22
M  V30 18 1 21 23
M  V30 19 1 21 24
M  V30 20 1 21 25
M  V30 21 1 26 27
M  V30 22 1 26 28
M  V30 23 1 26 29
M  V30 24 1 26 30
M  V30 25 1 31 32
M  V30 26 1 31 33
M  V30 27 1 31 34
M  V30 28 1 31 35
M  V30 29 1 36 37
M  V30 30 1 36 38
M  V30 31 1 36 39
M  V30 32 1 36 40
M  V30 33 1 41 42
M  V30 34 1 41 43
M  V30 35 1 41 44
M  V30 36 1 41 45
M  V30 37 1 46 47
M  V30 38 1 47 48
M  V30 39 1 49 50
M  V30 40 1 50 51
M  V30 41 1 52 53
M  V30 42 1 53 54
M  V30 43 1 55 56
M  V30 44 1 56 57
M  V30 45 1 58 59
M  V30 46 1 59 60
M  V30 47 1 61 62
M  V30 48 1 62 63
M  V30 49 1 64 65
M  V30 50 1 65 66
M  V30 51 1 67 68
M  V30 52 1 68 69
M  V30 53 1 70 71
M  V30 54 1 71 72
M  V30 55 1 73 74
M  V30 56 1 74 75
M  V30 57 1 76 77
M  V30 58 1 77 78
M  V30 59 1 79 80
M  V30 60 1 80 81
M  V30 61 1 82 83
M  V30 62 1 83 84
M  V30 63 1 85 86
M  V30 64 1 86 87
M  V30 65 1 88 89
M  V30 66 1 89 90
M  V30 67 1 91 92
M  V30 68 1 92 93
M  V30 69 1 94 95
M  V30 70 1 95 96
M  V30 71 1 97 98
M  V30 72 1 98 99
M  V30 73 1 2 91
M  V30 74 1 3 70
M  V30 75 1 4 58
M  V30 76 1 5 49
M  V30 77 1 7 88
M  V30 78 1 8 52
M  V30 79 1 9 60
M  V30 80 1 10 79
M  V30 81 1 12 73
M  V30 82 1 13 54
M  V30 83 1 14 61
M  V30 84 1 15 90
M  V30 85 1 17 67
M  V30 86 1 18 46
M  V30 87 1 19 76
M  V30 88 1 20 93
M  V30 89 1 22 97
M  V30 90 1 23 85
M  V30 91 1 24 75
M  V30 92 1 25 55
M  V30 93 1 27 78
M  V30 94 1 28 69
M  V30 95 1 29 63
M  V30 96 1 30 81
M  V30 97 1 32 64
M  V30 98 1 33 82
M  V30 99 1 34 94
M  V30 100 1 35 72
M  V30 101 1 37 84
M  V30 102 1 38 57
M  V30 103 1 39 51
M  V30 104 1 40 99
M  V30 105 1 42 48
M  V30 106 1 43 96
M  V30 107 1 44 66
M  V30 108 1 45 87
M  V30 END BOND
M  V30 END CTAB
M  END

$$$$
