
     RDKit          3D

  0  0  0  0  0  0  0  0  0  0999 V3000
M  V30 BEGIN CTAB
M  V30 COUNTS 99 108 0 0 0
M  V30 BEGIN ATOM
M  V30 1 Pd 1.6017 -3.7781 1.3607 0
M  V30 2 Pb 1.2280 -4.1628 0.5121 0
M  V30 3 Pb 2.5114 -4.0514 1.0500 0
M  V30 4 Pb 0.6984 -3.6405 1.7734 0
M  V30 5 Pb 2.0053 -3.3158 2.1508 0
M  V30 6 Pd -3.1113 0.1034 6.1306 0
M  V30 7 Pb -3.3628 1.0425 6.3523 0
M  V30 8 Pb -2.2109 0.4445 5.8687 0
M  V30 9 Pb -2.9016 -0.7811 5.7110 0
M  V30 10 Pb -4.0823 -0.1199 6.1801 0
M  V30 11 Pd -3.4394 4.0213 0.9276 0
M  V30 12 Pb -3.1081 3.5984 0.0874 0
M  V30 13 Pb -2.5577 3.8472 1.3676 0
M  V30 14 Pb -4.3612 4.0730 0.5429 0
M  V30 15 Pb -3.7556 4.3595 1.8124 0
M  V30 16 Pd -2.2537 -2.6739 -2.4420 0
M  V30 17 Pb -3.0886 -2.0825 -2.4341 0
M  V30 18 Pb -1.9027 -2.1535 -3.2261 0
M  V30 19 Pb -2.6397 -3.2447 -1.7305 0
M  V30 20 Pb -1.4519 -3.2720 -2.4044 0
M  V30 21 Pd 1.3527 3.7955 -1.6700 0
M  V30 22 Pb 1.4722 3.5372 -0.6903 0
M  V30 23 Pb 1.2956 3.9452 -2.6534 0
M  V30 24 Pb 0.4613 3.3488 -1.7212 0
M  V30 25 Pb 2.2301 4.2589 -1.6567 0
M  V30 26 Pd -6.8273 0.0531 0.4487 0
M  V30 27 Pb -6.7604 -0.9036 0.6967 0
M  V30 28 Pb -6.3502 -0.1374 -0.4332 0
M  V30 29 Pb -6.8896 1.0299 0.2249 0
M  V30 30 Pb -7.1956 0.1822 1.3686 0
M  V30 31 Pd 5.7766 -2.2350 -1.8315 0
M  V30 32 Pb 5.1568 -2.6081 -2.5188 0
M  V30 33 Pb 6.3773 -1.8928 -1.1073 0
M  V30 34 Pb 5.8717 -1.4069 -2.3873 0
M  V30 35 Pb 5.6266 -3.0439 -1.2726 0
M  V30 36 Pd 4.7120 0.7992 2.1208 0
M  V30 37 Pb 5.5406 0.2474 2.0552 0
M  V30 38 Pb 5.2281 1.5358 1.7024 0
M  V30 39 Pb 4.2319 0.0659 2.6116 0
M  V30 40 Pb 3.8672 1.3648 2.0505 0
M  V30 41 Pd 2.1893 0.0396 -4.9364 0
M  V30 42 Pb 1.2321 -0.2094 -5.0927 0
M  V30 43 Pb 3.1436 0.2815 -4.7409 0
M  V30 44 Pb 2.4220 -0.9215 -4.8066 0
M  V30 45 Pb 1.9644 1.0012 -5.1021 0
M  V30 46 Ag -3.0205 -3.6085 -1.2144 0
M  V30 47 Fe -4.8953 -3.0335 0.0809 0
M  V30 48 Ag -6.5983 -1.6068 0.8472 0
M  V30 49 Ag -4.8198 -0.1628 6.0632 0
M  V30 50 Fe -6.2952 -0.0164 4.2099 0
M  V30 51 Ag -7.3652 0.1612 2.0985 0
M  V30 52 Ag -1.6484 0.7997 5.5278 0
M  V30 53 Fe -1.5188 2.2596 3.6615 0
M  V30 54 Ag -1.9681 3.6337 1.7792 0
M  V30 55 Ag -3.5711 1.7588 6.3309 0
M  V30 56 Fe -3.8429 3.3591 4.6037 0
M  V30 57 Ag -3.9204 4.5016 2.5280 0
M  V30 58 Ag 2.9223 4.4972 -1.5639 0
M  V30 59 Fe 4.6389 3.6387 -0.2073 0
M  V30 60 Ag 5.5218 2.1143 1.3492 0
M  V30 61 Ag 0.0612 -3.6034 2.1734 0
M  V30 62 Fe -1.3562 -2.5039 3.7347 0
M  V30 63 Ag -2.7665 -1.3923 5.2940 0
M  V30 64 Ba 4.6747 -2.8877 -3.0176 0
M  V30 65 Ga 3.6429 -2.2843 -3.8757 0
M  V30 66 Ba 2.6238 -1.6352 -4.7154 0
M  V30 67 Ba -3.7149 -1.6336 -2.4858 0
M  V30 68 Ga -4.8259 -0.9876 -1.7118 0
M  V30 69 Ba -5.9960 -0.2715 -1.1042 0
M  V30 70 Ba 3.1808 -4.3293 0.8570 0
M  V30 71 Ga 4.3286 -3.9739 0.0075 0
M  V30 72 Ba 5.4834 -3.6309 -0.8375 0
M  V30 73 Ba -1.7130 -1.7784 -3.8527 0
M  V30 74 Ga -0.5678 -1.0931 -4.4892 0
M  V30 75 Ba 0.5116 -0.3860 -5.2116 0
M  V30 76 Ba -2.8463 3.2382 -0.5127 0
M  V30 77 Ga -1.5288 3.1411 -1.1627 0
M  V30 78 Ba -0.2136 3.0392 -1.8165 0
M  V30 79 Ba 2.3022 -2.9366 2.7263 0
M  V30 80 Ga 3.1061 -1.7021 2.8523 0
M  V30 81 Ba 3.9092 -0.4733 3.0292 0
M  V30 82 Ba 6.7972 -1.6970 -0.5154 0
M  V30 83 Ga 6.5233 -0.9223 0.7098 0
M  V30 84 Ba 6.1684 -0.1297 1.9022 0
M  V30 85 Ba 1.2776 3.9700 -3.3992 0
M  V30 86 Ga 1.5265 2.8768 -4.3548 0
M  V30 87 Ba 1.7918 1.7212 -5.2297 0
M  V30 88 Ba 1.0247 -4.4262 -0.1650 0
M  V30 89 Ga 0.0605 -4.0835 -1.2331 0
M  V30 90 Ba -0.8931 -3.7672 -2.3189 0
M  V30 91 Ba 5.8937 -0.7960 -2.8254 0
M  V30 92 Ga 4.8894 -0.1594 -3.7053 0
M  V30 93 Ba 3.8595 0.4494 -4.5754 0
M  V30 94 Ba 1.5500 3.3376 0.0493 0
M  V30 95 Ga 2.4357 2.5510 0.9682 0
M  V30 96 Ba 3.2366 1.8011 1.9899 0
M  V30 97 Ba -5.0614 4.0427 0.2744 0
M  V30 98 Ga -6.0114 2.9163 0.1535 0
M  V30 99 Ba -6.9303 1.7626 0.0510 0
M  V30 END ATOM
M  V30 BEGIN BOND
M  V30 1 1 1 2
M  V30 2 1 1 3
M  V30 3 1 1 4
M  V30 4 1 1 5
M  V30 5 1 6 7
M  V30 6 1 6 8
M  V30 7 1 6 9
M  V30 8 1 6 10
M  V30 9 1 11 12
M  V30 10 1 11 13
M  V30 11 1 11 14
M  V30 12 1 11 15
M  V30 13 1 16 17
M  V30 14 1 16 18
M  V30 15 1 16 19
M  V30 16 1 16 20
M  V30 17 1 21 22
M  V30 18 1 21 23
M  V30 19 1 21 24
M  V30 20 1 21 25
M  V30 21 1 26 27
M  V30 22 1 26 28
M  V30 23 1 26 29
M  V30 24 1 26 30
M  V30 25 1 31 32
M  V30 26 1 31 33
M  V30 27 1 31 34
M  V30 28 1 31 35
M  V30 29 1 36 37
M  V30 30 1 36 38
M  V30 31 1 36 39
M  V30 32 1 36 40
M  V30 33 1 41 42
M  V30 34 1 41 43
M  V30 35 1 41 44
M  V30 36 1 41 45
M  V30 37 1 46 47
M  V30 38 1 47 48
M  V30 39 1 49 50
M  V30 40 1 50 51
M  V30 41 1 52 53
M  V30 42 1 53 54
M  V30 43 1 55 56
M  V30 44 1 56 57
M  V30 45 1 58 59
M  V30 46 1 59 60
M  V30 47 1 61 62
M  V30 48 1 62 63
M  V30 49 1 64 65
M  V30 50 1 65 66
M  V30 51 1 67 68
M  V30 52 1 68 69
M  V30 53 1 70 71
M  V30 54 1 71 72
M  V30 55 1 73 74
M  V30 56 1 74 75
M  V30 57 1 76 77
M  V30 58 1 77 78
M  V30 59 1 79 80
M  V30 60 1 80 81
M  V30 61 1 82 83
M  V30 62 1 83 84
M  V30 63 1 85 86
M  V30 64 1 86 87
M  V30 65 1 88 89
M  V30 66 1 89 90
M  V30 67 1 91 92
M  V30 68 1 92 93
M  V30 69 1 94 95
M  V30 70 1 95 96
M  V30 71 1 97 98
M  V30 72 1 98 99
M  V30 73 1 2 88
M  V30 74 1 3 70
M  V30 75 1 4 61
M  V30 76 1 5 79
M  V30 77 1 7 55
M  V30 78 1 8 52
M  V30 79 1 9 63
M  V30 80 1 10 49
M  V30 81 1 12 76
M  V30 82 1 13 54
M  V30 83 1 14 97
M  V30 84 1 15 57
M  V30 85 1 17 67
M  V30 86 1 18 73
M  V30 87 1 19 46
M  V30 88 1 20 90
M  V30 89 1 22 94
M  V30 90 1 23 85
M  V30 91 1 24 78
M  V30 92 1 25 58
M  V30 93 1 27 48
M  V30 94 1 28 69
M  V30 95 1 29 99
M  V30 96 1 30 51
M  V30 97 1 32 64
M  V30 98 1 33 82
M  V30 99 1 34 91
M  V30 100 1 35 72
M  V30 101 1 37 84
M  V30 102 1 38 60
M  V30 103 1 39 81
M  V30 104 1 40 96
M  V30 105 1 42 75
M  V30 106 1 43 93
M  V30 107 1 44 66
M  V30 108 1 45 87
M  V30 END BOND
M  V30 END CTAB
M  END

$$$$
