
     RDKit          3D

  0  0  0  0  0  0  0  0  0  0999 V3000
M  V30 BEGIN CTAB
M  V30 COUNTS 99 108 0 0 0
M  V30 BEGIN ATOM
M  V30 1 Pd -4.0019 -2.5386 1.2270 0
M  V30 2 Pb -4.4676 -2.2955 0.3881 0
M  V30 3 Pb -4.5676 -1.8645 1.7035 0
M  V30 4 Pb -3.4183 -3.1615 0.7008 0
M  V30 5 Pb -3.6458 -2.8700 2.1014 0
M  V30 6 Pd 0.2934 -4.5863 4.8327 0
M  V30 7 Pb -0.6627 -4.3827 4.6215 0
M  V30 8 Pb 0.5157 -4.9387 3.9221 0
M  V30 9 Pb 1.2335 -4.7802 5.0843 0
M  V30 10 Pb 0.2534 -3.9982 5.6347 0
M  V30 11 Pd 2.5298 4.6320 -0.2050 0
M  V30 12 Pb 3.1225 4.8165 0.5773 0
M  V30 13 Pb 3.1641 3.9375 -0.5339 0
M  V30 14 Pb 1.8489 4.3807 -0.8922 0
M  V30 15 Pb 1.8585 5.2834 0.1276 0
M  V30 16 Pd 5.7391 -1.7626 2.0276 0
M  V30 17 Pb 5.6631 -1.1565 1.2400 0
M  V30 18 Pb 5.8115 -2.3692 2.8091 0
M  V30 19 Pb 6.1129 -1.0138 2.5772 0
M  V30 20 Pb 5.1918 -2.4808 1.5836 0
M  V30 21 Pd 1.2301 1.6636 -4.9191 0
M  V30 22 Pb 0.7967 2.1780 -4.1841 0
M  V30 23 Pb 1.5167 0.9275 -4.2770 0
M  V30 24 Pb 0.7242 2.2077 -5.5845 0
M  V30 25 Pb 1.6810 1.2052 -5.6779 0
M  V30 26 Pd 3.0438 2.0892 4.6521 0
M  V30 27 Pb 2.0891 2.4020 4.7022 0
M  V30 28 Pb 3.3512 2.8942 4.1349 0
M  V30 29 Pb 3.9919 1.7528 4.5970 0
M  V30 30 Pb 2.7378 1.3284 5.2309 0
M  V30 31 Pd -4.0631 3.0285 1.7214 0
M  V30 32 Pb -3.5626 3.8724 1.5591 0
M  V30 33 Pb -4.4427 3.1088 0.7947 0
M  V30 34 Pb -3.5615 2.9726 2.5877 0
M  V30 35 Pb -4.5932 2.2047 1.9422 0
M  V30 36 Pd -3.7065 0.6756 -5.5262 0
M  V30 37 Pb -4.3621 0.1766 -4.9793 0
M  V30 38 Pb -3.0480 1.2161 -6.0640 0
M  V30 39 Pb -3.5128 -0.2157 -5.9527 0
M  V30 40 Pb -3.9676 1.4795 -4.9870 0
M  V30 41 Pd -0.9264 -3.2134 -3.8549 0
M  V30 42 Pb -0.4529 -3.2288 -4.7258 0
M  V30 43 Pb -1.3383 -3.4317 -2.9592 0
M  V30 44 Pb -0.1170 -2.7642 -3.4366 0
M  V30 45 Pb -1.7472 -3.3851 -4.3977 0
M  V30 46 Ag 1.9555 -4.8536 5.2340 0
M  V30 47 Fe 4.0279 -3.9994 4.4926 0
M  V30 48 Ag 5.7568 -2.8487 3.3704 0
M  V30 49 Ag 0.3781 -3.4455 6.1212 0
M  V30 50 Fe 1.3801 -1.2926 6.0330 0
M  V30 51 Ag 2.4300 0.8114 5.6858 0
M  V30 52 Ag 0.8538 -5.0534 3.2581 0
M  V30 53 Fe 2.7543 -4.1587 2.1332 0
M  V30 54 Ag 4.6996 -3.0142 1.3677 0
M  V30 55 Ag 3.6208 3.3871 -0.7468 0
M  V30 56 Fe 4.6512 1.3480 -0.1143 0
M  V30 57 Ag 5.6026 -0.6761 0.6716 0
M  V30 58 Ag -4.8475 -2.1444 -0.2290 0
M  V30 59 Fe -4.9221 -1.1938 -2.3899 0
M  V30 60 Ag -4.8140 -0.1899 -4.5248 0
M  V30 61 Ag -4.6275 3.2337 0.0729 0
M  V30 62 Fe -4.4514 2.6477 -2.2278 0
M  V30 63 Ag -4.2347 1.9956 -4.5071 0
M  V30 64 Ag 1.2682 5.6768 0.3445 0
M  V30 65 Fe -0.9857 5.2808 0.9427 0
M  V30 66 Ag -3.1485 4.4854 1.4774 0
M  V30 67 Ag 1.3544 2.5565 4.7934 0
M  V30 68 Fe -0.8793 2.7729 3.9985 0
M  V30 69 Ag -3.1076 2.9915 3.1888 0
M  V30 70 Ag 1.9008 0.7383 -6.2046 0
M  V30 71 Fe 1.2159 -1.4981 -6.3445 0
M  V30 72 Ag -0.0542 -3.1989 -5.3474 0
M  V30 73 Ba -2.9899 -3.6214 0.2861 0
M  V30 74 Ga -2.3003 -3.5945 -1.0274 0
M  V30 75 Ba -1.5554 -3.7441 -2.3010 0
M  V30 76 Ba 3.5211 4.9236 1.2025 0
M  V30 77 Ga 3.5739 4.2007 2.4909 0
M  V30 78 Ba 3.6451 3.4981 3.7895 0
M  V30 79 Ba 0.2469 2.4922 -6.0869 0
M  V30 80 Ga -1.1702 2.1146 -6.2912 0
M  V30 81 Ba -2.5791 1.6813 -6.4353 0
M  V30 82 Ba 1.6681 0.3354 -3.8092 0
M  V30 83 Ga 1.0648 -1.0058 -3.5084 0
M  V30 84 Ba 0.4817 -2.3515 -3.1885 0
M  V30 85 Ba -4.9997 -1.3396 2.0222 0
M  V30 86 Ga -4.9804 0.1378 2.0802 0
M  V30 87 Ba -5.0054 1.6137 2.1652 0
M  V30 88 Ba -3.4827 -3.1462 2.7802 0
M  V30 89 Ga -2.3741 -3.6718 3.5997 0
M  V30 90 Ba -1.3922 -4.2222 4.5537 0
M  V30 91 Ba -3.4959 -0.9474 -6.1548 0
M  V30 92 Ga -2.9058 -2.1796 -5.5703 0
M  V30 93 Ba -2.2714 -3.3649 -4.9378 0
M  V30 94 Ba 1.2611 4.1994 -1.3216 0
M  V30 95 Ga 0.9097 3.3888 -2.5002 0
M  V30 96 Ba 0.4690 2.6069 -3.6683 0
M  V30 97 Ba 6.3130 -0.4555 3.0400 0
M  V30 98 Ga 5.5170 0.5483 3.7855 0
M  V30 99 Ba 4.7189 1.5498 4.5319 0
M  V30 END ATOM
M  V30 BEGIN BOND
M  V30 1 1 1 2
M  V30 2 1 1 3
M  V30 3 1 1 4
M  V30 4 1 1 5
M  V30 5 1 6 7
M  V30 6 1 6 8
M  V30 7 1 6 9
M  V30 8 1 6 10
M  V30 9 1 11 12
M  V30 10 1 11 13
M  V30 11 1 11 14
M  V30 12 1 11 15
M  V30 13 1 16 17
M  V30 14 1 16 18
M  V30 15 1 16 19
M  V30 16 1 16 20
M  V30 17 1 21 22
M  V30 18 1 21 23
M  V30 19 1 21 24
M  V30 20 1 21 25
M  V30 21 1 26 27
M  V30 22 1 26 28
M  V30 23 1 26 29
M  V30 24 1 26 30
M  V30 25 1 31 32
M  V30 26 1 31 33
M  V30 27 1 31 34
M  V30 28 1 31 35
M  V30 29 1 36 37
M  V30 30 1 36 38
M  V30 31 1 36 39
M  V30 32 1 36 40
M  V30 33 1 41 42
M  V30 34 1 41 43
M  V30 35 1 41 44
M  V30 36 1 41 45
M  V30 37 1 46 47
M  V30 38 1 47 48
M  V30 39 1 49 50
M  V30 40 1 50 51
M  V30 41 1 52 53
M  V30 42 1 53 54
M  V30 43 1 55 56
M  V30 44 1 56 57
M  V30 45 1 58 59
M  V30 46 1 59 60
M  V30 47 1 61 62
M  V30 48 1 62 63
M  V30 49 1 64 65
M  V30 50 1 65 66
M  V30 51 1 67 68
M  V30 52 1 68 69
M  V30 53 1 70 71
M  V30 54 1 71 72
M  V30 55 1 73 74
M  V30 56 1 74 75
M  V30 57 1 76 77
M  V30 58 1 77 78
M  V30 59 1 79 80
M  V30 60 1 80 81
M  V30 61 1 82 83
M  V30 62 1 83 84
M  V30 63 1 85 86
M  V30 64 1 86 87
M  V30 65 1 88 89
M  V30 66 1 89 90
M  V30 67 1 91 92
M  V30 68 1 92 93
M  V30 69 1 94 95
M  V30 70 1 95 96
M  V30 71 1 97 98
M  V30 72 1 98 99
M  V30 73 1 2 58
M  V30 74 1 3 85
M  V30 75 1 4 73
M  V30 76 1 5 88
M  V30 77 1 7 90
M  V30 78 1 8 52
M  V30 79 1 9 46
M  V30 80 1 10 49
M  V30 81 1 12 76
M  V30 82 1 13 55
M  V30 83 1 14 94
M  V30 84 1 15 64
M  V30 85 1 17 57
M  V30 86 1 18 48
M  V30 87 1 19 97
M  V30 88 1 20 54
M  V30 89 1 22 96
M  V30 90 1 23 82
M  V30 91 1 24 79
M  V30 92 1 25 70
M  V30 93 1 27 67
M  V30 94 1 28 78
M  V30 95 1 29 99
M  V30 96 1 30 51
M  V30 97 1 32 66
M  V30 98 1 33 61
M  V30 99 1 34 69
M  V30 100 1 35 87
M  V30 101 1 37 60
M  V30 102 1 38 81
M  V30 103 1 39 91
M  V30 104 1 40 63
M  V30 105 1 42 72
M  V30 106 1 43 75
M  V30 107 1 44 84
M  V30 108 1 45 93
M  V30 END BOND
M  V30 END CTAB
M  END

$$$$
