
     RDKit          3D

  0  0  0  0  0  0  0  0  0  0999 V3000
M  V30 BEGIN CTAB
M  V30 COUNTS 99 108 0 0 0
M  V30 BEGIN ATOM
M  V30 1 Pd -5.9049 1.8102 -1.1652 0
M  V30 2 Pb -6.0912 1.4079 -0.2718 0
M  V30 3 Pb -5.3085 2.5259 -0.7923 0
M  V30 4 Pb -6.3904 1.0197 -1.5293 0
M  V30 5 Pb -5.7023 2.1021 -2.0956 0
M  V30 6 Pd 3.9835 4.7454 -2.6552 0
M  V30 7 Pb 3.2625 5.1842 -2.1246 0
M  V30 8 Pb 4.7033 4.2121 -3.0872 0
M  V30 9 Pb 3.3481 4.4918 -3.3930 0
M  V30 10 Pb 4.5900 4.8823 -1.8695 0
M  V30 11 Pd 4.2965 -1.2047 -0.2884 0
M  V30 12 Pb 3.6702 -0.6093 -0.8176 0
M  V30 13 Pb 3.8506 -1.6071 -1.0821 0
M  V30 14 Pb 5.0151 -0.8887 -0.9011 0
M  V30 15 Pb 4.9636 -1.2831 0.4490 0
M  V30 16 Pd -3.1162 -4.5424 -2.2614 0
M  V30 17 Pb -3.2840 -5.0993 -1.4450 0
M  V30 18 Pb -3.0470 -4.3803 -3.2526 0
M  V30 19 Pb -4.0663 -4.2378 -2.2869 0
M  V30 20 Pb -2.8953 -3.6489 -2.6286 0
M  V30 21 Pd -0.9742 -0.5942 -5.6729 0
M  V30 22 Pb -0.1827 -1.1489 -5.4428 0
M  V30 23 Pb -0.4221 0.2500 -5.6545 0
M  V30 24 Pb -1.7738 -0.0188 -5.8222 0
M  V30 25 Pb -1.5276 -1.4373 -5.6941 0
M  V30 26 Pd 0.3902 -1.1857 6.1793 0
M  V30 27 Pb 1.4010 -1.1544 6.0934 0
M  V30 28 Pb 0.4126 -0.2548 6.5278 0
M  V30 29 Pb -0.6000 -1.1842 6.2668 0
M  V30 30 Pb 0.3417 -2.1148 5.7946 0
M  V30 31 Pd -0.3788 2.6203 -1.0127 0
M  V30 32 Pb -0.8578 1.8984 -1.4942 0
M  V30 33 Pb 0.4815 2.1817 -1.3155 0
M  V30 34 Pb 0.0917 3.4312 -0.6709 0
M  V30 35 Pb -1.2489 3.0391 -0.7233 0
M  V30 36 Pd 5.2058 1.6723 4.0977 0
M  V30 37 Pb 5.5471 2.3860 3.4809 0
M  V30 38 Pb 4.8114 0.9345 4.6737 0
M  V30 39 Pb 4.6757 2.3451 4.6022 0
M  V30 40 Pb 5.7286 0.9673 3.6235 0
M  V30 41 Pd -3.3393 -3.6460 3.3273 0
M  V30 42 Pb -3.3351 -3.0099 4.0938 0
M  V30 43 Pb -2.4611 -4.0128 3.6472 0
M  V30 44 Pb -3.4008 -4.3351 2.5945 0
M  V30 45 Pb -4.1689 -3.1715 3.0390 0
M  V30 46 Ag 5.2102 3.7027 -3.2732 0
M  V30 47 Fe 5.6259 1.4973 -2.5312 0
M  V30 48 Ag 5.4715 -0.5703 -1.3953 0
M  V30 49 Ag 0.5303 0.4572 6.6968 0
M  V30 50 Fe 2.2167 1.9855 6.0835 0
M  V30 51 Ag 4.1913 2.7142 5.0234 0
M  V30 52 Ag -6.6528 0.3562 -1.7482 0
M  V30 53 Fe -5.8778 -1.8577 -2.0929 0
M  V30 54 Ag -4.7444 -3.9263 -2.3324 0
M  V30 55 Ag -2.7713 -2.9611 -2.8746 0
M  V30 56 Fe -1.9689 -0.7880 -2.3989 0
M  V30 57 Ag -1.1726 1.3893 -1.9325 0
M  V30 58 Ag 3.5651 -1.8990 -1.7058 0
M  V30 59 Fe 2.0028 -1.7848 -3.4819 0
M  V30 60 Ag 0.3881 -1.5583 -5.1994 0
M  V30 61 Ag -6.2538 0.9778 0.3186 0
M  V30 62 Fe -5.5557 -0.8585 1.6510 0
M  V30 63 Ag -4.7364 -2.7017 2.9026 0
M  V30 64 Ag -5.5203 2.2098 -2.8106 0
M  V30 65 Fe -4.0065 1.4388 -4.4622 0
M  V30 66 Ag -2.3502 0.4545 -5.8414 0
M  V30 67 Ag 5.0168 4.9184 -1.2512 0
M  V30 68 Fe 5.4461 3.9658 0.8852 0
M  V30 69 Ag 5.7672 2.9191 2.9965 0
M  V30 70 Ag 2.8816 4.2493 -3.9372 0
M  V30 71 Fe 1.4216 2.5622 -4.7766 0
M  V30 72 Ag -0.0473 0.9096 -5.6673 0
M  V30 73 Ba -3.0092 -4.2252 -3.9924 0
M  V30 74 Ga -2.4517 -3.1394 -4.8381 0
M  V30 75 Ba -1.9185 -2.0859 -5.7383 0
M  V30 76 Ba 2.1652 -1.1354 6.0770 0
M  V30 77 Ga 3.3111 -0.3407 5.5434 0
M  V30 78 Ba 4.5577 0.3427 5.0872 0
M  V30 79 Ba 2.7531 5.4445 -1.6434 0
M  V30 80 Ga 1.5696 4.8030 -1.0472 0
M  V30 81 Ba 0.4028 4.0904 -0.5009 0
M  V30 82 Ba -4.8263 3.0405 -0.5258 0
M  V30 83 Ga -3.3508 3.1902 -0.5214 0
M  V30 84 Ba -1.8812 3.3859 -0.4903 0
M  V30 85 Ba -1.3426 -1.1838 6.3103 0
M  V30 86 Ga -2.3704 -1.8553 5.5060 0
M  V30 87 Ba -3.3661 -2.5449 4.6768 0
M  V30 88 Ba 5.5005 -1.2994 0.9691 0
M  V30 89 Ga 5.8077 -0.4612 2.1392 0
M  V30 90 Ba 6.0878 0.3949 3.3032 0
M  V30 91 Ba 3.2920 -0.1252 -1.2699 0
M  V30 92 Ga 2.1580 0.8372 -1.3445 0
M  V30 93 Ba 1.0859 1.8333 -1.6209 0
M  V30 94 Ba -3.3962 -5.4875 -0.8098 0
M  V30 95 Ga -3.4256 -5.1563 0.6345 0
M  V30 96 Ba -3.4688 -4.8994 2.0934 0
M  V30 97 Ba 0.2797 -2.8090 5.4995 0
M  V30 98 Ga -0.7473 -3.5272 4.7058 0
M  V30 99 Ba -1.7876 -4.2262 3.9124 0
M  V30 END ATOM
M  V30 BEGIN BOND
M  V30 1 1 1 2
M  V30 2 1 1 3
M  V30 3 1 1 4
M  V30 4 1 1 5
M  V30 5 1 6 7
M  V30 6 1 6 8
M  V30 7 1 6 9
M  V30 8 1 6 10
M  V30 9 1 11 12
M  V30 10 1 11 13
M  V30 11 1 11 14
M  V30 12 1 11 15
M  V30 13 1 16 17
M  V30 14 1 16 18
M  V30 15 1 16 19
M  V30 16 1 16 20
M  V30 17 1 21 22
M  V30 18 1 21 23
M  V30 19 1 21 24
M  V30 20 1 21 25
M  V30 21 1 26 27
M  V30 22 1 26 28
M  V30 23 1 26 29
M  V30 24 1 26 30
M  V30 25 1 31 32
M  V30 26 1 31 33
M  V30 27 1 31 34
M  V30 28 1 31 35
M  V30 29 1 36 37
M  V30 30 1 36 38
M  V30 31 1 36 39
M  V30 32 1 36 40
M  V30 33 1 41 42
M  V30 34 1 41 43
M  V30 35 1 41 44
M  V30 36 1 41 45
M  V30 37 1 46 47
M  V30 38 1 47 48
M  V30 39 1 49 50
M  V30 40 1 50 51
M  V30 41 1 52 53
M  V30 42 1 53 54
M  V30 43 1 55 56
M  V30 44 1 56 57
M  V30 45 1 58 59
M  V30 46 1 59 60
M  V30 47 1 61 62
M  V30 48 1 62 63
M  V30 49 1 64 65
M  V30 50 1 65 66
M  V30 51 1 67 68
M  V30 52 1 68 69
M  V30 53 1 70 71
M  V30 54 1 71 72
M  V30 55 1 73 74
M  V30 56 1 74 75
M  V30 57 1 76 77
M  V30 58 1 77 78
M  V30 59 1 79 80
M  V30 60 1 80 81
M  V30 61 1 82 83
M  V30 62 1 83 84
M  V30 63 1 85 86
M  V30 64 1 86 87
M  V30 65 1 88 89
M  V30 66 1 89 90
M  V30 67 1 91 92
M  V30 68 1 92 93
M  V30 69 1 94 95
M  V30 70 1 95 96
M  V30 71 1 97 98
M  V30 72 1 98 99
M  V30 73 1 2 61
M  V30 74 1 3 82
M  V30 75 1 4 52
M  V30 76 1 5 64
M  V30 77 1 7 79
M  V30 78 1 8 46
M  V30 79 1 9 70
M  V30 80 1 10 67
M  V30 81 1 12 91
M  V30 82 1 13 58
M  V30 83 1 14 48
M  V30 84 1 15 88
M  V30 85 1 17 94
M  V30 86 1 18 73
M  V30 87 1 19 54
M  V30 88 1 20 55
M  V30 89 1 22 60
M  V30 90 1 23 72
M  V30 91 1 24 66
M  V30 92 1 25 75
M  V30 93 1 27 76
M  V30 94 1 28 49
M  V30 95 1 29 85
M  V30 96 1 30 97
M  V30 97 1 32 57
M  V30 98 1 33 93
M  V30 99 1 34 81
M  V30 100 1 35 84
M  V30 101 1 37 69
M  V30 102 1 38 78
M  V30 103 1 39 51
M  V30 104 1 40 90
M  V30 105 1 42 87
M  V30 106 1 43 99
M  V30 107 1 44 96
M  V30 108 1 45 63
M  V30 END BOND
M  V30 END CTAB
M  END

$$$$
