
     RDKit          3D

  0  0  0  0  0  0  0  0  0  0999 V3000
M  V30 BEGIN CTAB
M  V30 COUNTS 99 108 0 0 0
M  V30 BEGIN ATOM
M  V30 1 Pd -2.9803 -3.4260 2.9239 0
M  V30 2 Pb -2.3899 -4.2298 2.8413 0
M  V30 3 Pb -3.7601 -4.0355 2.8247 0
M  V30 4 Pb -2.1626 -2.8488 2.9200 0
M  V30 5 Pb -3.6173 -2.6679 2.7771 0
M  V30 6 Pd -1.6837 6.7511 3.2771 0
M  V30 7 Pb -2.1551 6.8333 2.4000 0
M  V30 8 Pb -0.9387 7.3500 2.9819 0
M  V30 9 Pb -2.3200 6.0334 3.5705 0
M  V30 10 Pb -1.2204 6.6293 4.1490 0
M  V30 11 Pd -3.2638 -6.4388 -2.7886 0
M  V30 12 Pb -3.8926 -5.8255 -3.2630 0
M  V30 13 Pb -2.6278 -6.8701 -2.1487 0
M  V30 14 Pb -3.9827 -6.6062 -2.1205 0
M  V30 15 Pb -2.5206 -6.2415 -3.4278 0
M  V30 16 Pd 5.9778 -1.2201 -1.8095 0
M  V30 17 Pb 5.2557 -1.6326 -1.2422 0
M  V30 18 Pb 5.4376 -0.3960 -1.9802 0
M  V30 19 Pb 6.5900 -1.0215 -2.5765 0
M  V30 20 Pb 6.5101 -2.0475 -1.6526 0
M  V30 21 Pd -3.9659 -1.2354 -1.6559 0
M  V30 22 Pb -4.5332 -1.2964 -0.8289 0
M  V30 23 Pb -3.3289 -1.1530 -2.4138 0
M  V30 24 Pb -3.5694 -0.4033 -1.2284 0
M  V30 25 Pb -4.4134 -1.9935 -2.1475 0
M  V30 26 Pd -1.5102 4.3680 -1.8086 0
M  V30 27 Pb -0.9894 5.1374 -2.1732 0
M  V30 28 Pb -2.0265 5.0138 -1.2433 0
M  V30 29 Pb -1.0446 3.7482 -2.4300 0
M  V30 30 Pb -1.9562 3.5696 -1.3641 0
M  V30 31 Pd 4.2932 -5.3349 -3.4210 0
M  V30 32 Pb 5.1702 -5.3130 -2.9479 0
M  V30 33 Pb 4.8049 -5.3643 -4.2810 0
M  V30 34 Pb 3.4103 -5.3609 -3.8910 0
M  V30 35 Pb 3.8766 -5.0115 -2.5633 0
M  V30 36 Pd 2.6459 5.5986 0.3444 0
M  V30 37 Pb 2.8923 4.8643 -0.2889 0
M  V30 38 Pb 2.3654 6.3544 0.9433 0
M  V30 39 Pb 2.9997 5.0364 1.0985 0
M  V30 40 Pb 2.2701 6.1099 -0.4288 0
M  V30 41 Pd 0.4166 0.7715 5.2309 0
M  V30 42 Pb 0.3277 0.0522 4.5437 0
M  V30 43 Pb 1.3754 0.9125 4.9906 0
M  V30 44 Pb -0.5749 0.8750 5.3001 0
M  V30 45 Pb 0.5021 1.5417 5.8542 0
M  V30 46 Ag 3.2565 4.5484 1.6147 0
M  V30 47 Fe 2.7721 2.8447 3.2032 0
M  V30 48 Ag 2.0260 1.1888 4.7394 0
M  V30 49 Ag -2.8011 -0.9736 -2.9010 0
M  V30 50 Fe -1.5399 0.9909 -3.2276 0
M  V30 51 Ag -0.8180 3.2084 -2.8835 0
M  V30 52 Ag -2.0179 -4.8401 2.6116 0
M  V30 53 Fe -1.9173 -6.1396 0.6254 0
M  V30 54 Ag -2.2117 -7.0473 -1.5502 0
M  V30 55 Ag -4.2835 -4.5141 2.6041 0
M  V30 56 Fe -4.6588 -5.7442 0.6205 0
M  V30 57 Ag -4.4575 -6.6595 -1.5501 0
M  V30 58 Ag 5.0360 0.2217 -2.1202 0
M  V30 59 Fe 4.0586 2.2698 -1.4191 0
M  V30 60 Ag 3.0546 4.3278 -0.7880 0
M  V30 61 Ag -0.8883 6.4239 4.7817 0
M  V30 62 Fe -0.0828 4.4289 5.7623 0
M  V30 63 Ag 0.5316 2.1910 6.2141 0
M  V30 64 Ag -2.6839 5.4228 3.8201 0
M  V30 65 Fe -2.2222 3.2201 4.5875 0
M  V30 66 Ag -1.2727 1.1483 5.2646 0
M  V30 67 Ag 6.9192 -1.1473 -3.2359 0
M  V30 68 Fe 6.4602 -3.0753 -4.5300 0
M  V30 69 Ag 5.2873 -5.1142 -4.7944 0
M  V30 70 Ag -1.9420 -6.0875 -3.8794 0
M  V30 71 Fe 0.3972 -5.7337 -4.0921 0
M  V30 72 Ag 2.7433 -5.3909 -4.2338 0
M  V30 73 Ba -3.3363 0.2205 -0.8509 0
M  V30 74 Ga -2.7777 1.5962 -1.0117 0
M  V30 75 Ba -2.2301 2.9844 -0.9524 0
M  V30 76 Ba -0.3192 7.7325 2.7968 0
M  V30 77 Ga 0.9072 7.3536 2.0611 0
M  V30 78 Ba 2.1292 6.9609 1.3252 0
M  V30 79 Ba 6.8625 -2.6996 -1.5708 0
M  V30 80 Ga 6.4196 -4.0172 -2.0421 0
M  V30 81 Ba 5.8178 -5.2414 -2.5839 0
M  V30 82 Ba -0.5471 5.7063 -2.3738 0
M  V30 83 Ga 0.7137 6.1379 -1.7457 0
M  V30 84 Ba 1.9555 6.4519 -1.0175 0
M  V30 85 Ba -1.5030 -2.4963 2.8506 0
M  V30 86 Ga -0.6584 -1.4605 3.4744 0
M  V30 87 Ba 0.2859 -0.4525 3.9923 0
M  V30 88 Ba -2.5287 6.8720 1.7518 0
M  V30 89 Ga -2.4550 6.1858 0.4474 0
M  V30 90 Ba -2.4283 5.5315 -0.8750 0
M  V30 91 Ba -4.3788 -5.3043 -3.4966 0
M  V30 92 Ga -4.5602 -3.9016 -3.0544 0
M  V30 93 Ba -4.7430 -2.5013 -2.6050 0
M  V30 94 Ba -4.1605 -2.1942 2.5593 0
M  V30 95 Ga -4.5400 -1.7038 1.2127 0
M  V30 96 Ba -4.8752 -1.2444 -0.1564 0
M  V30 97 Ba 4.7137 -2.0555 -0.9193 0
M  V30 98 Ga 4.1420 -3.3558 -1.3726 0
M  V30 99 Ba 3.6562 -4.6493 -1.9331 0
M  V30 END ATOM
M  V30 BEGIN BOND
M  V30 1 1 1 2
M  V30 2 1 1 3
M  V30 3 1 1 4
M  V30 4 1 1 5
M  V30 5 1 6 7
M  V30 6 1 6 8
M  V30 7 1 6 9
M  V30 8 1 6 10
M  V30 9 1 11 12
M  V30 10 1 11 13
M  V30 11 1 11 14
M  V30 12 1 11 15
M  V30 13 1 16 17
M  V30 14 1 16 18
M  V30 15 1 16 19
M  V30 16 1 16 20
M  V30 17 1 21 22
M  V30 18 1 21 23
M  V30 19 1 21 24
M  V30 20 1 21 25
M  V30 21 1 26 27
M  V30 22 1 26 28
M  V30 23 1 26 29
M  V30 24 1 26 30
M  V30 25 1 31 32
M  V30 26 1 31 33
M  V30 27 1 31 34
M  V30 28 1 31 35
M  V30 29 1 36 37
M  V30 30 1 36 38
M  V30 31 1 36 39
M  V30 32 1 36 40
M  V30 33 1 41 42
M  V30 34 1 41 43
M  V30 35 1 41 44
M  V30 36 1 41 45
M  V30 37 1 46 47
M  V30 38 1 47 48
M  V30 39 1 49 50
M  V30 40 1 50 51
M  V30 41 1 52 53
M  V30 42 1 53 54
M  V30 43 1 55 56
M  V30 44 1 56 57
M  V30 45 1 58 59
M  V30 46 1 59 60
M  V30 47 1 61 62
M  V30 48 1 62 63
M  V30 49 1 64 65
M  V30 50 1 65 66
M  V30 51 1 67 68
M  V30 52 1 68 69
M  V30 53 1 70 71
M  V30 54 1 71 72
M  V30 55 1 73 74
M  V30 56 1 74 75
M  V30 57 1 76 77
M  V30 58 1 77 78
M  V30 59 1 79 80
M  V30 60 1 80 81
M  V30 61 1 82 83
M  V30 62 1 83 84
M  V30 63 1 85 86
M  V30 64 1 86 87
M  V30 65 1 88 89
M  V30 66 1 89 90
M  V30 67 1 91 92
M  V30 68 1 92 93
M  V30 69 1 94 95
M  V30 70 1 95 96
M  V30 71 1 97 98
M  V30 72 1 98 99
M  V30 73 1 2 52
M  V30 74 1 3 55
M  V30 75 1 4 85
M  V30 76 1 5 94
M  V30 77 1 7 88
M  V30 78 1 8 76
M  V30 79 1 9 64
M  V30 80 1 10 61
M  V30 81 1 12 91
M  V30 82 1 13 54
M  V30 83 1 14 57
M  V30 84 1 15 70
M  V30 85 1 17 97
M  V30 86 1 18 58
M  V30 87 1 19 67
M  V30 88 1 20 79
M  V30 89 1 22 96
M  V30 90 1 23 49
M  V30 91 1 24 73
M  V30 92 1 25 93
M  V30 93 1 27 82
M  V30 94 1 28 90
M  V30 95 1 29 51
M  V30 96 1 30 75
M  V30 97 1 32 81
M  V30 98 1 33 69
M  V30 99 1 34 72
M  V30 100 1 35 99
M  V30 101 1 37 60
M  V30 102 1 38 78
M  V30 103 1 39 46
M  V30 104 1 40 84
M  V30 105 1 42 87
M  V30 106 1 43 48
M  V30 107 1 44 66
M  V30 108 1 45 63
M  V30 END BOND
M  V30 END CTAB
M  END

$$$$
