
     RDKit          3D

  0  0  0  0  0  0  0  0  0  0999 V3000
M  V30 BEGIN CTAB
M  V30 COUNTS 99 108 0 0 0
M  V30 BEGIN ATOM
M  V30 1 Pd 0.9866 -2.4320 4.9794 0
M  V30 2 Pb 1.9605 -2.2125 5.0220 0
M  V30 3 Pb 0.0146 -2.6574 5.0048 0
M  V30 4 Pb 0.8433 -1.7159 5.6603 0
M  V30 5 Pb 1.1292 -3.0721 4.2208 0
M  V30 6 Pd -6.1048 -3.4119 -3.6699 0
M  V30 7 Pb -5.6785 -2.7803 -4.3136 0
M  V30 8 Pb -6.6253 -2.6754 -3.2441 0
M  V30 9 Pb -5.5574 -4.1697 -4.0180 0
M  V30 10 Pb -6.5069 -4.0467 -3.0013 0
M  V30 11 Pd 5.6401 3.1235 -3.4302 0
M  V30 12 Pb 6.0276 3.7840 -2.7848 0
M  V30 13 Pb 5.1687 2.4309 -3.9753 0
M  V30 14 Pb 5.1321 3.8493 -3.8887 0
M  V30 15 Pb 6.1012 2.4125 -2.9056 0
M  V30 16 Pd -0.4691 6.2650 -1.7090 0
M  V30 17 Pb 0.1372 6.4691 -2.4736 0
M  V30 18 Pb 0.1342 6.7570 -1.0823 0
M  V30 19 Pb -1.0192 5.7037 -2.3276 0
M  V30 20 Pb -0.9931 5.9880 -0.9030 0
M  V30 21 Pd -1.0720 -0.7325 -4.8482 0
M  V30 22 Pb -2.0336 -0.9513 -5.0263 0
M  V30 23 Pb -0.0987 -0.4921 -4.8426 0
M  V30 24 Pb -1.3449 0.2311 -4.8327 0
M  V30 25 Pb -0.7968 -1.6965 -4.8001 0
M  V30 26 Pd 1.7920 4.9156 5.0100 0
M  V30 27 Pb 2.0272 5.6386 4.3619 0
M  V30 28 Pb 2.7095 4.9377 5.4117 0
M  V30 29 Pb 1.5337 4.1700 5.6244 0
M  V30 30 Pb 0.8978 4.8808 4.5593 0
M  V30 31 Pd 6.5164 2.6646 3.6341 0
M  V30 32 Pb 6.3004 1.8447 4.1607 0
M  V30 33 Pb 6.2131 3.2611 4.3804 0
M  V30 34 Pb 6.7926 2.0790 2.8750 0
M  V30 35 Pb 6.6905 3.4424 3.0284 0
M  V30 36 Pd -1.6008 -5.5457 -1.7216 0
M  V30 37 Pb -1.0811 -5.0904 -2.4508 0
M  V30 38 Pb -2.1086 -6.0465 -1.0138 0
M  V30 39 Pb -2.2746 -5.7776 -2.4252 0
M  V30 40 Pb -0.8937 -5.3596 -1.0336 0
M  V30 41 Pd -5.7233 -4.7902 1.8074 0
M  V30 42 Pb -6.3088 -3.9844 1.8566 0
M  V30 43 Pb -5.2231 -4.5020 2.6204 0
M  V30 44 Pb -5.0940 -5.5550 1.6686 0
M  V30 45 Pb -6.2156 -5.0612 0.9732 0
M  V30 46 Ag 2.6759 -2.0137 5.1237 0
M  V30 47 Fe 4.4219 -0.4335 4.8243 0
M  V30 48 Ag 6.1160 1.1932 4.4794 0
M  V30 49 Ag -1.3708 5.2582 -2.8185 0
M  V30 50 Fe -1.5022 3.1064 -3.8180 0
M  V30 51 Ag -1.5931 0.9394 -4.7892 0
M  V30 52 Ag 0.5881 7.0536 -0.5652 0
M  V30 53 Fe 1.4430 6.7262 1.6250 0
M  V30 54 Ag 2.1275 6.1496 3.8236 0
M  V30 55 Ag 6.4192 1.9390 -2.4245 0
M  V30 56 Fe 6.7818 1.6601 -0.0985 0
M  V30 57 Ag 6.9697 1.6857 2.2647 0
M  V30 58 Ag -6.9760 -2.2305 -2.7623 0
M  V30 59 Fe -7.1328 -2.4007 -0.4125 0
M  V30 60 Ag -6.7101 -3.3798 1.6940 0
M  V30 61 Ag 6.2780 4.2147 -2.2219 0
M  V30 62 Fe 6.5999 4.2327 0.1332 0
M  V30 63 Ag 6.8044 3.9477 2.4841 0
M  V30 64 Ag -1.2795 5.7757 -0.2422 0
M  V30 65 Fe -0.6433 5.2984 1.9977 0
M  V30 66 Ag 0.2633 4.8840 4.1555 0
M  V30 67 Ag 4.7009 4.3946 -4.1622 0
M  V30 68 Fe 2.6898 5.5766 -3.7399 0
M  V30 69 Ag 0.6460 6.5351 -3.0159 0
M  V30 70 Ag 0.7717 -1.1207 6.1085 0
M  V30 71 Fe 1.0224 1.2387 6.1856 0
M  V30 72 Ag 1.3364 3.5883 6.0547 0
M  V30 73 Ag 1.2336 -3.5091 3.6166 0
M  V30 74 Fe 0.4205 -4.3857 1.5598 0
M  V30 75 Ag -0.3662 -5.2760 -0.5013 0
M  V30 76 Ag -0.7117 -2.8275 5.0630 0
M  V30 77 Fe -2.7719 -3.5523 4.1366 0
M  V30 78 Ag -4.8360 -4.2759 3.2180 0
M  V30 79 Ag 4.7789 1.8953 -4.3268 0
M  V30 80 Fe 2.6896 0.7981 -4.6112 0
M  V30 81 Ag 0.6334 -0.3473 -4.9423 0
M  V30 82 Ba -5.3585 -2.3091 -4.7976 0
M  V30 83 Ga -4.0264 -1.7004 -4.9774 0
M  V30 84 Ba -2.7434 -1.0311 -5.2640 0
M  V30 85 Ba -0.5239 -2.3973 -4.7479 0
M  V30 86 Ga -0.6546 -3.5803 -3.8673 0
M  V30 87 Ba -0.7123 -4.8116 -3.0473 0
M  V30 88 Ba -6.8099 -4.5338 -2.5094 0
M  V30 89 Ga -6.6779 -4.8747 -1.0726 0
M  V30 90 Ba -6.5973 -5.2676 0.3545 0
M  V30 91 Ba -5.1446 -4.7623 -4.2121 0
M  V30 92 Ga -3.9383 -5.3619 -3.6117 0
M  V30 93 Ba -2.7331 -5.9480 -2.9960 0
M  V30 94 Ba -2.4473 -6.4466 -0.4707 0
M  V30 95 Ga -3.5333 -6.2700 0.5174 0
M  V30 96 Ba -4.6167 -6.1125 1.5116 0
M  V30 97 Ba 3.4039 4.9437 5.6999 0
M  V30 98 Ga 4.6918 4.3264 5.3193 0
M  V30 99 Ba 5.9792 3.7088 4.9381 0
M  V30 END ATOM
M  V30 BEGIN BOND
M  V30 1 1 1 2
M  V30 2 1 1 3
M  V30 3 1 1 4
M  V30 4 1 1 5
M  V30 5 1 6 7
M  V30 6 1 6 8
M  V30 7 1 6 9
M  V30 8 1 6 10
M  V30 9 1 11 12
M  V30 10 1 11 13
M  V30 11 1 11 14
M  V30 12 1 11 15
M  V30 13 1 16 17
M  V30 14 1 16 18
M  V30 15 1 16 19
M  V30 16 1 16 20
M  V30 17 1 21 22
M  V30 18 1 21 23
M  V30 19 1 21 24
M  V30 20 1 21 25
M  V30 21 1 26 27
M  V30 22 1 26 28
M  V30 23 1 26 29
M  V30 24 1 26 30
M  V30 25 1 31 32
M  V30 26 1 31 33
M  V30 27 1 31 34
M  V30 28 1 31 35
M  V30 29 1 36 37
M  V30 30 1 36 38
M  V30 31 1 36 39
M  V30 32 1 36 40
M  V30 33 1 41 42
M  V30 34 1 41 43
M  V30 35 1 41 44
M  V30 36 1 41 45
M  V30 37 1 46 47
M  V30 38 1 47 48
M  V30 39 1 49 50
M  V30 40 1 50 51
M  V30 41 1 52 53
M  V30 42 1 53 54
M  V30 43 1 55 56
M  V30 44 1 56 57
M  V30 45 1 58 59
M  V30 46 1 59 60
M  V30 47 1 61 62
M  V30 48 1 62 63
M  V30 49 1 64 65
M  V30 50 1 65 66
M  V30 51 1 67 68
M  V30 52 1 68 69
M  V30 53 1 70 71
M  V30 54 1 71 72
M  V30 55 1 73 74
M  V30 56 1 74 75
M  V30 57 1 76 77
M  V30 58 1 77 78
M  V30 59 1 79 80
M  V30 60 1 80 81
M  V30 61 1 82 83
M  V30 62 1 83 84
M  V30 63 1 85 86
M  V30 64 1 86 87
M  V30 65 1 88 89
M  V30 66 1 89 90
M  V30 67 1 91 92
M  V30 68 1 92 93
M  V30 69 1 94 95
M  V30 70 1 95 96
M  V30 71 1 97 98
M  V30 72 1 98 99
M  V30 73 1 2 46
M  V30 74 1 3 76
M  V30 75 1 4 70
M  V30 76 1 5 73
M  V30 77 1 7 82
M  V30 78 1 8 58
M  V30 79 1 9 91
M  V30 80 1 10 88
M  V30 81 1 12 61
M  V30 82 1 13 79
M  V30 83 1 14 67
M  V30 84 1 15 55
M  V30 85 1 17 69
M  V30 86 1 18 52
M  V30 87 1 19 49
M  V30 88 1 20 64
M  V30 89 1 22 84
M  V30 90 1 23 81
M  V30 91 1 24 51
M  V30 92 1 25 85
M  V30 93 1 27 54
M  V30 94 1 28 97
M  V30 95 1 29 72
M  V30 96 1 30 66
M  V30 97 1 32 48
M  V30 98 1 33 99
M  V30 99 1 34 57
M  V30 100 1 35 63
M  V30 101 1 37 87
M  V30 102 1 38 94
M  V30 103 1 39 93
M  V30 104 1 40 75
M  V30 105 1 42 60
M  V30 106 1 43 78
M  V30 107 1 44 96
M  V30 108 1 45 90
M  V30 END BOND
M  V30 END CTAB
M  END

$$$$
