
     RDKit          3D

  0  0  0  0  0  0  0  0  0  0999 V3000
M  V30 BEGIN CTAB
M  V30 COUNTS 99 108 0 0 0
M  V30 BEGIN ATOM
M  V30 1 Pd -1.4388 -3.6178 -0.7256 0
M  V30 2 Pb -0.6661 -4.1224 -1.1190 0
M  V30 3 Pb -1.5106 -4.2693 0.0353 0
M  V30 4 Pb -1.4218 -2.9972 -1.5064 0
M  V30 5 Pb -2.1930 -3.0757 -0.3571 0
M  V30 6 Pd -4.5079 0.7164 -2.7177 0
M  V30 7 Pb -5.1618 1.4645 -2.6285 0
M  V30 8 Pb -4.1232 0.9546 -1.8173 0
M  V30 9 Pb -3.7586 0.0696 -2.8738 0
M  V30 10 Pb -4.6909 0.6761 -3.6946 0
M  V30 11 Pd -0.5160 4.1004 -1.8647 0
M  V30 12 Pb 0.2578 3.5064 -1.6462 0
M  V30 13 Pb -1.0960 3.5714 -1.2249 0
M  V30 14 Pb -0.0016 4.5223 -2.6140 0
M  V30 15 Pb -1.2889 4.7107 -2.0260 0
M  V30 16 Pd 3.0162 -2.2710 -3.7020 0
M  V30 17 Pb 2.4080 -2.2737 -4.4958 0
M  V30 18 Pb 3.6547 -2.2471 -2.9346 0
M  V30 19 Pb 3.4422 -1.4362 -4.0539 0
M  V30 20 Pb 2.5844 -3.1005 -3.3341 0
M  V30 21 Pd 1.8143 3.1677 2.8030 0
M  V30 22 Pb 1.6625 3.5281 3.7181 0
M  V30 23 Pb 2.7364 2.8889 3.0736 0
M  V30 24 Pb 1.9682 2.8171 1.8773 0
M  V30 25 Pb 0.8526 3.4049 2.5737 0
M  V30 26 Pd 1.0265 1.7860 -6.2992 0
M  V30 27 Pb 1.9704 1.6657 -5.9958 0
M  V30 28 Pb 0.9861 0.8089 -6.5111 0
M  V30 29 Pb 1.0574 2.7487 -6.0129 0
M  V30 30 Pb 0.0702 1.8446 -6.5845 0
M  V30 31 Pd -0.1485 -4.2090 4.6695 0
M  V30 32 Pb 0.7141 -4.5736 4.3277 0
M  V30 33 Pb -1.0068 -3.8356 5.0216 0
M  V30 34 Pb 0.3687 -3.6279 5.3027 0
M  V30 35 Pb -0.6428 -4.7477 3.9858 0
M  V30 36 Pd -3.6353 1.9080 4.1140 0
M  V30 37 Pb -3.9623 1.1645 4.6903 0
M  V30 38 Pb -3.1316 2.5568 3.5207 0
M  V30 39 Pb -3.9051 1.3549 3.3274 0
M  V30 40 Pb -3.3349 2.4234 4.9105 0
M  V30 41 Pd 4.2481 -1.6359 3.8106 0
M  V30 42 Pb 4.7285 -1.6740 2.9379 0
M  V30 43 Pb 3.7105 -1.6272 4.6557 0
M  V30 44 Pb 4.0410 -2.6073 3.7111 0
M  V30 45 Pb 4.4716 -0.6622 3.8909 0
M  V30 46 Ag 4.1501 -2.1985 -2.3755 0
M  V30 47 Fe 4.6361 -1.9666 -0.0650 0
M  V30 48 Ag 5.0389 -1.7347 2.2614 0
M  V30 49 Ag -2.7410 -2.6247 -0.1164 0
M  V30 50 Fe -3.4511 -0.8690 1.3151 0
M  V30 51 Ag -4.0981 0.8881 2.7745 0
M  V30 52 Ag -4.6254 0.7634 -4.4311 0
M  V30 53 Fe -2.7788 1.2814 -5.8245 0
M  V30 54 Ag -0.6572 1.7859 -6.7561 0
M  V30 55 Ag -1.6355 -3.5198 5.2805 0
M  V30 56 Fe -2.9843 -1.5681 5.2837 0
M  V30 57 Ag -4.0770 0.5249 5.0564 0
M  V30 58 Ag -5.4363 2.1519 -2.5865 0
M  V30 59 Fe -4.0885 4.0694 -2.3560 0
M  V30 60 Ag -1.9536 5.0350 -2.1055 0
M  V30 61 Ag 1.4087 3.7535 4.3772 0
M  V30 62 Fe -0.7154 3.5258 5.3699 0
M  V30 63 Ag -2.9568 2.8041 5.4211 0
M  V30 64 Ba 1.3768 -4.8165 4.0835 0
M  V30 65 Ga 2.6432 -4.1070 3.8450 0
M  V30 66 Ba 3.8749 -3.3322 3.6290 0
M  V30 67 Ba 1.9815 -2.2379 -5.1119 0
M  V30 68 Ga 1.4480 -1.1025 -5.8890 0
M  V30 69 Ba 0.9391 0.0689 -6.6282 0
M  V30 70 Ba -1.6041 -4.7790 0.5832 0
M  V30 71 Ga -1.2881 -4.9399 2.0186 0
M  V30 72 Ba -0.9934 -5.1445 3.4531 0
M  V30 73 Ba 0.8297 3.0668 -1.4415 0
M  V30 74 Ga 1.4693 2.8032 -0.1376 0
M  V30 75 Ba 2.0875 2.5607 1.1808 0
M  V30 76 Ba 3.7539 -0.8031 -4.3109 0
M  V30 77 Ga 3.2366 0.3737 -5.0342 0
M  V30 78 Ba 2.6662 1.5255 -5.7573 0
M  V30 79 Ba -3.7738 1.2085 -1.1923 0
M  V30 80 Ga -2.6596 2.1766 -0.9784 0
M  V30 81 Ba -1.5447 3.1467 -0.7767 0
M  V30 82 Ba 3.4135 2.6671 3.3101 0
M  V30 83 Ga 4.0333 1.3611 3.6139 0
M  V30 84 Ba 4.6676 0.0634 3.9229 0
M  V30 85 Ba -0.0849 -4.4848 -1.4327 0
M  V30 86 Ga 1.0912 -4.0910 -2.2415 0
M  V30 87 Ba 2.2766 -3.7293 -3.0517 0
M  V30 88 Ba 0.7758 -3.1756 5.7464 0
M  V30 89 Ga 2.0238 -2.4106 5.5365 0
M  V30 90 Ba 3.2742 -1.6685 5.2667 0
M  V30 91 Ba 0.1328 3.6063 2.4043 0
M  V30 92 Ga -1.2780 3.2775 2.7717 0
M  V30 93 Ba -2.7186 3.0186 3.0737 0
M  V30 94 Ba -1.4420 -2.5452 -2.1017 0
M  V30 95 Ga -2.3227 -1.4486 -2.5477 0
M  V30 96 Ba -3.1602 -0.3472 -3.0594 0
M  V30 97 Ba 0.3473 4.7871 -3.2260 0
M  V30 98 Ga 0.7361 4.1417 -4.5007 0
M  V30 99 Ba 1.1082 3.4586 -5.7606 0
M  V30 END ATOM
M  V30 BEGIN BOND
M  V30 1 1 1 2
M  V30 2 1 1 3
M  V30 3 1 1 4
M  V30 4 1 1 5
M  V30 5 1 6 7
M  V30 6 1 6 8
M  V30 7 1 6 9
M  V30 8 1 6 10
M  V30 9 1 11 12
M  V30 10 1 11 13
M  V30 11 1 11 14
M  V30 12 1 11 15
M  V30 13 1 16 17
M  V30 14 1 16 18
M  V30 15 1 16 19
M  V30 16 1 16 20
M  V30 17 1 21 22
M  V30 18 1 21 23
M  V30 19 1 21 24
M  V30 20 1 21 25
M  V30 21 1 26 27
M  V30 22 1 26 28
M  V30 23 1 26 29
M  V30 24 1 26 30
M  V30 25 1 31 32
M  V30 26 1 31 33
M  V30 27 1 31 34
M  V30 28 1 31 35
M  V30 29 1 36 37
M  V30 30 1 36 38
M  V30 31 1 36 39
M  V30 32 1 36 40
M  V30 33 1 41 42
M  V30 34 1 41 43
M  V30 35 1 41 44
M  V30 36 1 41 45
M  V30 37 1 46 47
M  V30 38 1 47 48
M  V30 39 1 49 50
M  V30 40 1 50 51
M  V30 41 1 52 53
M  V30 42 1 53 54
M  V30 43 1 55 56
M  V30 44 1 56 57
M  V30 45 1 58 59
M  V30 46 1 59 60
M  V30 47 1 61 62
M  V30 48 1 62 63
M  V30 49 1 64 65
M  V30 50 1 65 66
M  V30 51 1 67 68
M  V30 52 1 68 69
M  V30 53 1 70 71
M  V30 54 1 71 72
M  V30 55 1 73 74
M  V30 56 1 74 75
M  V30 57 1 76 77
M  V30 58 1 77 78
M  V30 59 1 79 80
M  V30 60 1 80 81
M  V30 61 1 82 83
M  V30 62 1 83 84
M  V30 63 1 85 86
M  V30 64 1 86 87
M  V30 65 1 88 89
M  V30 66 1 89 90
M  V30 67 1 91 92
M  V30 68 1 92 93
M  V30 69 1 94 95
M  V30 70 1 95 96
M  V30 71 1 97 98
M  V30 72 1 98 99
M  V30 73 1 2 85
M  V30 74 1 3 70
M  V30 75 1 4 94
M  V30 76 1 5 49
M  V30 77 1 7 58
M  V30 78 1 8 79
M  V30 79 1 9 96
M  V30 80 1 10 52
M  V30 81 1 12 73
M  V30 82 1 13 81
M  V30 83 1 14 97
M  V30 84 1 15 60
M  V30 85 1 17 67
M  V30 86 1 18 46
M  V30 87 1 19 76
M  V30 88 1 20 87
M  V30 89 1 22 61
M  V30 90 1 23 82
M  V30 91 1 24 75
M  V30 92 1 25 91
M  V30 93 1 27 78
M  V30 94 1 28 69
M  V30 95 1 29 99
M  V30 96 1 30 54
M  V30 97 1 32 64
M  V30 98 1 33 55
M  V30 99 1 34 88
M  V30 100 1 35 72
M  V30 101 1 37 57
M  V30 102 1 38 93
M  V30 103 1 39 51
M  V30 104 1 40 63
M  V30 105 1 42 48
M  V30 106 1 43 90
M  V30 107 1 44 66
M  V30 108 1 45 84
M  V30 END BOND
M  V30 END CTAB
M  END

$$$$
