
     RDKit          3D

  0  0  0  0  0  0  0  0  0  0999 V3000
M  V30 BEGIN CTAB
M  V30 COUNTS 99 108 0 0 0
M  V30 BEGIN ATOM
M  V30 1 Pd -0.4813 0.6840 5.0132 0
M  V30 2 Pb -1.3447 1.1995 5.0281 0
M  V30 3 Pb 0.3892 0.1964 5.0782 0
M  V30 4 Pb 0.0308 1.5364 4.9357 0
M  V30 5 Pb -0.9713 -0.1883 5.0508 0
M  V30 6 Pd 6.2495 -5.0121 -0.4693 0
M  V30 7 Pb 6.0324 -4.1114 -0.8425 0
M  V30 8 Pb 6.3617 -5.8941 -0.0168 0
M  V30 9 Pb 5.4396 -5.3573 -0.9323 0
M  V30 10 Pb 6.9289 -4.6304 0.1532 0
M  V30 11 Pd -5.7493 1.9828 -4.4210 0
M  V30 12 Pb -6.0302 1.7153 -3.5009 0
M  V30 13 Pb -5.6522 1.0226 -4.6591 0
M  V30 14 Pb -5.3717 2.2249 -5.3159 0
M  V30 15 Pb -5.7224 2.9254 -4.0888 0
M  V30 16 Pd -0.7379 2.6352 -5.7539 0
M  V30 17 Pb -1.5563 2.5682 -6.3284 0
M  V30 18 Pb 0.0516 2.7487 -5.1508 0
M  V30 19 Pb -0.3717 1.7612 -6.0860 0
M  V30 20 Pb -1.0762 3.5018 -5.3859 0
M  V30 21 Pd 0.1137 -1.7548 -3.2069 0
M  V30 22 Pb 1.0505 -1.5796 -2.9001 0
M  V30 23 Pb -0.8036 -1.9517 -3.5435 0
M  V30 24 Pb 0.3903 -1.5921 -4.1546 0
M  V30 25 Pb -0.2425 -1.7865 -2.2687 0
M  V30 26 Pd 0.3063 6.3434 0.3938 0
M  V30 27 Pb 0.9137 5.8129 -0.1973 0
M  V30 28 Pb -0.3501 6.7934 0.9976 0
M  V30 29 Pb 0.7908 6.0492 1.2128 0
M  V30 30 Pb -0.2246 6.5567 -0.4256 0
M  V30 31 Pd -4.0770 4.3158 2.2126 0
M  V30 32 Pb -3.8846 3.8607 3.0871 0
M  V30 33 Pb -3.5951 5.1491 2.4866 0
M  V30 34 Pb -4.2909 4.7384 1.3288 0
M  V30 35 Pb -4.5877 3.5195 1.8947 0
M  V30 36 Pd -0.2834 -4.0680 2.1695 0
M  V30 37 Pb -0.6508 -3.3649 1.5606 0
M  V30 38 Pb 0.1222 -4.7502 2.7827 0
M  V30 39 Pb 0.1631 -4.4977 1.3858 0
M  V30 40 Pb -0.7668 -3.6560 2.9470 0
M  V30 41 Pd 4.7559 -5.1364 3.9322 0
M  V30 42 Pb 5.0682 -5.9877 3.5111 0
M  V30 43 Pb 4.4571 -4.2681 4.3257 0
M  V30 44 Pb 3.8508 -5.5309 4.1077 0
M  V30 45 Pb 5.6479 -4.7358 3.7074 0
M  V30 46 Ag 5.7672 -3.4582 -1.0956 0
M  V30 47 Fe 3.8103 -2.3888 -1.9134 0
M  V30 48 Ag 1.7701 -1.4720 -2.7129 0
M  V30 49 Ag 0.5976 2.9038 -4.6607 0
M  V30 50 Fe 1.0803 4.1027 -2.6683 0
M  V30 51 Ag 1.2943 5.3815 -0.6786 0
M  V30 52 Ag -5.6467 3.5767 -3.7242 0
M  V30 53 Fe -5.0778 4.4239 -1.5776 0
M  V30 54 Ag -4.4783 5.0015 0.6490 0
M  V30 55 Ag -6.1639 1.5415 -2.7854 0
M  V30 56 Fe -5.6580 2.1473 -0.5480 0
M  V30 57 Ag -4.9869 2.9763 1.5712 0
M  V30 58 Ag -1.2809 4.1447 -5.0577 0
M  V30 59 Fe -1.0246 5.4832 -3.1128 0
M  V30 60 Ag -0.5995 6.6195 -1.0714 0
M  V30 61 Ag 4.7520 -5.5484 -1.1440 0
M  V30 62 Fe 2.5517 -5.2680 -0.3074 0
M  V30 63 Ag 0.5038 -4.8139 0.7983 0
M  V30 64 Ag 0.4294 2.1598 4.8303 0
M  V30 65 Fe 0.8424 4.0145 3.4125 0
M  V30 66 Ag 1.0734 5.7813 1.8489 0
M  V30 67 Ag 1.0542 -0.1367 5.1750 0
M  V30 68 Fe 2.6192 -1.8954 4.8658 0
M  V30 69 Ag 4.2437 -3.6077 4.6075 0
M  V30 70 Ag -5.4545 0.3132 -4.7601 0
M  V30 71 Fe -3.5541 -1.0415 -4.3600 0
M  V30 72 Ag -1.4885 -2.0654 -3.8178 0
M  V30 73 Ba -1.9820 1.5968 5.1107 0
M  V30 74 Ga -2.8476 2.5475 4.3755 0
M  V30 75 Ba -3.7875 3.5022 3.7437 0
M  V30 76 Ba -0.5938 -1.7266 -1.6038 0
M  V30 77 Ga -0.7064 -2.3250 -0.2574 0
M  V30 78 Ba -0.9185 -2.8213 1.1186 0
M  V30 79 Ba -0.0654 1.1078 -6.3055 0
M  V30 80 Ga 0.2480 -0.1624 -5.6152 0
M  V30 81 Ba 0.5339 -1.4066 -4.8681 0
M  V30 82 Ba 7.3350 -4.3680 0.7237 0
M  V30 83 Ga 6.9038 -4.3705 2.1352 0
M  V30 84 Ba 6.3108 -4.4559 3.4846 0
M  V30 85 Ba 6.3757 -6.5156 0.3982 0
M  V30 86 Ga 5.8817 -6.6483 1.7787 0
M  V30 87 Ba 5.3418 -6.5830 3.1470 0
M  V30 88 Ba -5.0408 2.3501 -5.9788 0
M  V30 89 Ga -3.6228 2.4639 -6.3794 0
M  V30 90 Ba -2.1914 2.5713 -6.7318 0
M  V30 91 Ba -1.3206 -0.8533 5.0683 0
M  V30 92 Ga -1.2240 -2.1051 4.2875 0
M  V30 93 Ba -1.1539 -3.3719 3.5282 0
M  V30 94 Ba 0.4338 -5.2532 3.2484 0
M  V30 95 Ga 1.8022 -5.5350 3.7339 0
M  V30 96 Ba 3.1673 -5.8240 4.2246 0
M  V30 97 Ba -0.8414 7.0614 1.4958 0
M  V30 98 Ga -2.0529 6.4604 2.0856 0
M  V30 99 Ba -3.2532 5.8013 2.6347 0
M  V30 END ATOM
M  V30 BEGIN BOND
M  V30 1 1 1 2
M  V30 2 1 1 3
M  V30 3 1 1 4
M  V30 4 1 1 5
M  V30 5 1 6 7
M  V30 6 1 6 8
M  V30 7 1 6 9
M  V30 8 1 6 10
M  V30 9 1 11 12
M  V30 10 1 11 13
M  V30 11 1 11 14
M  V30 12 1 11 15
M  V30 13 1 16 17
M  V30 14 1 16 18
M  V30 15 1 16 19
M  V30 16 1 16 20
M  V30 17 1 21 22
M  V30 18 1 21 23
M  V30 19 1 21 24
M  V30 20 1 21 25
M  V30 21 1 26 27
M  V30 22 1 26 28
M  V30 23 1 26 29
M  V30 24 1 26 30
M  V30 25 1 31 32
M  V30 26 1 31 33
M  V30 27 1 31 34
M  V30 28 1 31 35
M  V30 29 1 36 37
M  V30 30 1 36 38
M  V30 31 1 36 39
M  V30 32 1 36 40
M  V30 33 1 41 42
M  V30 34 1 41 43
M  V30 35 1 41 44
M  V30 36 1 41 45
M  V30 37 1 46 47
M  V30 38 1 47 48
M  V30 39 1 49 50
M  V30 40 1 50 51
M  V30 41 1 52 53
M  V30 42 1 53 54
M  V30 43 1 55 56
M  V30 44 1 56 57
M  V30 45 1 58 59
M  V30 46 1 59 60
M  V30 47 1 61 62
M  V30 48 1 62 63
M  V30 49 1 64 65
M  V30 50 1 65 66
M  V30 51 1 67 68
M  V30 52 1 68 69
M  V30 53 1 70 71
M  V30 54 1 71 72
M  V30 55 1 73 74
M  V30 56 1 74 75
M  V30 57 1 76 77
M  V30 58 1 77 78
M  V30 59 1 79 80
M  V30 60 1 80 81
M  V30 61 1 82 83
M  V30 62 1 83 84
M  V30 63 1 85 86
M  V30 64 1 86 87
M  V30 65 1 88 89
M  V30 66 1 89 90
M  V30 67 1 91 92
M  V30 68 1 92 93
M  V30 69 1 94 95
M  V30 70 1 95 96
M  V30 71 1 97 98
M  V30 72 1 98 99
M  V30 73 1 2 73
M  V30 74 1 3 67
M  V30 75 1 4 64
M  V30 76 1 5 91
M  V30 77 1 7 46
M  V30 78 1 8 85
M  V30 79 1 9 61
M  V30 80 1 10 82
M  V30 81 1 12 55
M  V30 82 1 13 70
M  V30 83 1 14 88
M  V30 84 1 15 52
M  V30 85 1 17 90
M  V30 86 1 18 49
M  V30 87 1 19 79
M  V30 88 1 20 58
M  V30 89 1 22 48
M  V30 90 1 23 72
M  V30 91 1 24 81
M  V30 92 1 25 76
M  V30 93 1 27 51
M  V30 94 1 28 97
M  V30 95 1 29 66
M  V30 96 1 30 60
M  V30 97 1 32 75
M  V30 98 1 33 99
M  V30 99 1 34 54
M  V30 100 1 35 57
M  V30 101 1 37 78
M  V30 102 1 38 94
M  V30 103 1 39 63
M  V30 104 1 40 93
M  V30 105 1 42 87
M  V30 106 1 43 69
M  V30 107 1 44 96
M  V30 108 1 45 84
M  V30 END BOND
M  V30 END CTAB
M  END

$$$$
