
     RDKit          3D

  0  0  0  0  0  0  0  0  0  0999 V3000
M  V30 BEGIN CTAB
M  V30 COUNTS 99 108 0 0 0
M  V30 BEGIN ATOM
M  V30 1 Pd -1.8853 4.7865 -6.0276 0
M  V30 2 Pb -1.2477 4.1114 -6.4022 0
M  V30 3 Pb -1.1485 5.4576 -5.9968 0
M  V30 4 Pb -2.6188 4.0891 -5.9441 0
M  V30 5 Pb -2.5093 5.4684 -5.6626 0
M  V30 6 Pd -5.4663 2.0922 -2.2088 0
M  V30 7 Pb -5.2034 1.1273 -2.1930 0
M  V30 8 Pb -5.1732 2.1703 -3.1797 0
M  V30 9 Pb -5.7311 3.0499 -2.2214 0
M  V30 10 Pb -5.7047 2.0442 -1.2395 0
M  V30 11 Pd 4.0093 -6.1099 -1.1391 0
M  V30 12 Pb 4.5155 -6.4368 -0.3470 0
M  V30 13 Pb 3.2488 -6.7300 -0.8827 0
M  V30 14 Pb 3.5029 -5.7670 -1.9297 0
M  V30 15 Pb 4.7229 -5.4487 -1.3732 0
M  V30 16 Pd -4.8337 -1.5839 1.7145 0
M  V30 17 Pb -4.5608 -2.5468 1.7263 0
M  V30 18 Pb -4.9222 -1.5557 2.7121 0
M  V30 19 Pb -4.7451 -1.5911 0.7179 0
M  V30 20 Pb -5.1619 -0.6409 1.6792 0
M  V30 21 Pd 3.8775 6.2568 -1.5235 0
M  V30 22 Pb 4.5638 5.8947 -2.1522 0
M  V30 23 Pb 4.3709 5.9087 -0.7291 0
M  V30 24 Pb 3.3716 6.6012 -2.3130 0
M  V30 25 Pb 3.1271 6.4740 -0.8962 0
M  V30 26 Pd 0.0451 -7.5140 2.9946 0
M  V30 27 Pb -0.8302 -7.2302 2.6060 0
M  V30 28 Pb 0.4123 -7.7296 2.0740 0
M  V30 29 Pb -0.3108 -7.2465 3.8883 0
M  V30 30 Pb 0.9316 -7.7479 3.3816 0
M  V30 31 Pd -1.7642 -1.2311 6.5181 0
M  V30 32 Pb -0.8614 -1.2896 6.9225 0
M  V30 33 Pb -1.6277 -0.2302 6.3607 0
M  V30 34 Pb -1.8450 -2.2189 6.6428 0
M  V30 35 Pb -2.6967 -1.2038 6.1510 0
M  V30 36 Pd 1.8107 3.3604 4.8213 0
M  V30 37 Pb 0.9118 3.0233 5.1731 0
M  V30 38 Pb 2.2859 2.7577 5.4484 0
M  V30 39 Pb 1.3837 4.0023 4.1806 0
M  V30 40 Pb 2.6857 3.6375 4.4289 0
M  V30 41 Pd 4.2074 -0.0448 -5.2313 0
M  V30 42 Pb 4.7292 0.8053 -5.1479 0
M  V30 43 Pb 3.5208 0.4127 -5.7987 0
M  V30 44 Pb 4.8635 -0.5306 -4.6522 0
M  V30 45 Pb 3.6788 -0.8924 -5.2564 0
M  V30 46 Ag 4.6686 5.6558 -0.0914 0
M  V30 47 Fe 4.1224 4.7406 2.0279 0
M  V30 48 Ag 3.3073 3.8405 4.0658 0
M  V30 49 Ag 2.5717 6.5242 -0.3911 0
M  V30 50 Fe 1.7618 5.5946 1.6428 0
M  V30 51 Ag 1.1619 4.5140 3.6749 0
M  V30 52 Ag 5.0028 5.5402 -2.6447 0
M  V30 53 Fe 5.1598 3.5283 -3.8966 0
M  V30 54 Ag 5.1016 1.4487 -5.0422 0
M  V30 55 Ag -0.6088 -6.9859 4.5235 0
M  V30 56 Fe -1.2623 -5.0288 5.6961 0
M  V30 57 Ag -1.8484 -2.9647 6.7106 0
M  V30 58 Ag 3.1727 -5.4561 -2.5263 0
M  V30 59 Fe 3.1511 -3.5471 -3.9376 0
M  V30 60 Ag 3.3154 -1.5455 -5.2036 0
M  V30 61 Ag 5.1945 -4.9045 -1.5857 0
M  V30 62 Fe 5.3670 -2.9131 -2.8703 0
M  V30 63 Ag 5.3018 -0.9540 -4.2133 0
M  V30 64 Ag -3.0253 5.8707 -5.3167 0
M  V30 65 Fe -4.6599 5.2706 -3.7320 0
M  V30 66 Ag -5.8200 3.7763 -2.3306 0
M  V30 67 Ag -4.3870 -3.2763 1.6869 0
M  V30 68 Fe -2.9345 -5.1259 2.0193 0
M  V30 69 Ag -1.4884 -6.9807 2.3500 0
M  V30 70 Ag 4.7486 -6.7090 0.3025 0
M  V30 71 Fe 3.5596 -7.4229 2.2099 0
M  V30 72 Ag 1.6511 -7.8542 3.5262 0
M  V30 73 Ag -0.5874 5.9390 -5.8889 0
M  V30 74 Fe 1.2308 6.4594 -4.4563 0
M  V30 75 Ag 3.0028 6.8312 -2.9229 0
M  V30 76 Ag -0.1699 -1.2418 7.1754 0
M  V30 77 Fe 1.5561 0.3160 6.8261 0
M  V30 78 Ag 2.5423 2.2446 5.9121 0
M  V30 79 Ag -0.7530 3.6260 -6.6925 0
M  V30 80 Fe 1.1185 2.1823 -6.4462 0
M  V30 81 Ag 2.9890 0.7336 -6.2215 0
M  V30 82 Ba 2.6773 -7.2068 -0.7107 0
M  V30 83 Ga 1.7000 -7.5064 0.3763 0
M  V30 84 Ba 0.6725 -7.9122 1.3793 0
M  V30 85 Ba -5.0100 0.4027 -2.1738 0
M  V30 86 Ga -4.8422 -0.5979 -1.1026 0
M  V30 87 Ba -4.6751 -1.5966 -0.0294 0
M  V30 88 Ba -1.5528 0.5312 6.2587 0
M  V30 89 Ga -0.5963 1.6044 5.8276 0
M  V30 90 Ba 0.2197 2.8004 5.4322 0
M  V30 91 Ba -5.0174 -1.4928 3.4552 0
M  V30 92 Ga -4.1778 -1.3595 4.6641 0
M  V30 93 Ba -3.4131 -1.2217 5.9213 0
M  V30 94 Ba -5.8548 2.0244 -0.5057 0
M  V30 95 Ga -5.6477 1.0409 0.5725 0
M  V30 96 Ba -5.4389 0.0546 1.6477 0
M  V30 97 Ba -3.1706 3.5622 -5.8804 0
M  V30 98 Ga -4.0434 2.9248 -4.8474 0
M  V30 99 Ba -4.9720 2.2107 -3.9185 0
M  V30 END ATOM
M  V30 BEGIN BOND
M  V30 1 1 1 2
M  V30 2 1 1 3
M  V30 3 1 1 4
M  V30 4 1 1 5
M  V30 5 1 6 7
M  V30 6 1 6 8
M  V30 7 1 6 9
M  V30 8 1 6 10
M  V30 9 1 11 12
M  V30 10 1 11 13
M  V30 11 1 11 14
M  V30 12 1 11 15
M  V30 13 1 16 17
M  V30 14 1 16 18
M  V30 15 1 16 19
M  V30 16 1 16 20
M  V30 17 1 21 22
M  V30 18 1 21 23
M  V30 19 1 21 24
M  V30 20 1 21 25
M  V30 21 1 26 27
M  V30 22 1 26 28
M  V30 23 1 26 29
M  V30 24 1 26 30
M  V30 25 1 31 32
M  V30 26 1 31 33
M  V30 27 1 31 34
M  V30 28 1 31 35
M  V30 29 1 36 37
M  V30 30 1 36 38
M  V30 31 1 36 39
M  V30 32 1 36 40
M  V30 33 1 41 42
M  V30 34 1 41 43
M  V30 35 1 41 44
M  V30 36 1 41 45
M  V30 37 1 46 47
M  V30 38 1 47 48
M  V30 39 1 49 50
M  V30 40 1 50 51
M  V30 41 1 52 53
M  V30 42 1 53 54
M  V30 43 1 55 56
M  V30 44 1 56 57
M  V30 45 1 58 59
M  V30 46 1 59 60
M  V30 47 1 61 62
M  V30 48 1 62 63
M  V30 49 1 64 65
M  V30 50 1 65 66
M  V30 51 1 67 68
M  V30 52 1 68 69
M  V30 53 1 70 71
M  V30 54 1 71 72
M  V30 55 1 73 74
M  V30 56 1 74 75
M  V30 57 1 76 77
M  V30 58 1 77 78
M  V30 59 1 79 80
M  V30 60 1 80 81
M  V30 61 1 82 83
M  V30 62 1 83 84
M  V30 63 1 85 86
M  V30 64 1 86 87
M  V30 65 1 88 89
M  V30 66 1 89 90
M  V30 67 1 91 92
M  V30 68 1 92 93
M  V30 69 1 94 95
M  V30 70 1 95 96
M  V30 71 1 97 98
M  V30 72 1 98 99
M  V30 73 1 2 79
M  V30 74 1 3 73
M  V30 75 1 4 97
M  V30 76 1 5 64
M  V30 77 1 7 85
M  V30 78 1 8 99
M  V30 79 1 9 66
M  V30 80 1 10 94
M  V30 81 1 12 70
M  V30 82 1 13 82
M  V30 83 1 14 58
M  V30 84 1 15 61
M  V30 85 1 17 67
M  V30 86 1 18 91
M  V30 87 1 19 87
M  V30 88 1 20 96
M  V30 89 1 22 52
M  V30 90 1 23 46
M  V30 91 1 24 75
M  V30 92 1 25 49
M  V30 93 1 27 69
M  V30 94 1 28 84
M  V30 95 1 29 55
M  V30 96 1 30 72
M  V30 97 1 32 76
M  V30 98 1 33 88
M  V30 99 1 34 57
M  V30 100 1 35 93
M  V30 101 1 37 90
M  V30 102 1 38 78
M  V30 103 1 39 51
M  V30 104 1 40 48
M  V30 105 1 42 54
M  V30 106 1 43 81
M  V30 107 1 44 63
M  V30 108 1 45 60
M  V30 END BOND
M  V30 END CTAB
M  END

$$$$
