
     RDKit          3D

  0  0  0  0  0  0  0  0  0  0999 V3000
M  V30 BEGIN CTAB
M  V30 COUNTS 99 108 0 0 0
M  V30 BEGIN ATOM
M  V30 1 Pd -7.0617 0.2341 1.7476 0
M  V30 2 Pb -6.9207 -0.2945 2.5855 0
M  V30 3 Pb -6.7288 1.0781 2.1676 0
M  V30 4 Pb -7.3361 -0.6245 1.2918 0
M  V30 5 Pb -7.1954 0.7119 0.8838 0
M  V30 6 Pd 7.8464 -1.0990 -1.5391 0
M  V30 7 Pb 7.8167 -1.2372 -2.5256 0
M  V30 8 Pb 7.6621 -0.7377 -0.6126 0
M  V30 9 Pb 8.5951 -0.4483 -1.6336 0
M  V30 10 Pb 7.0892 -1.7496 -1.4836 0
M  V30 11 Pd 1.7373 -1.6627 -5.1301 0
M  V30 12 Pb 2.6747 -1.3612 -5.3130 0
M  V30 13 Pb 0.8367 -2.0859 -5.0327 0
M  V30 14 Pb 2.1490 -2.3521 -4.5373 0
M  V30 15 Pb 1.3320 -0.8703 -5.5906 0
M  V30 16 Pd -5.3685 -3.5664 -2.2493 0
M  V30 17 Pb -4.6301 -3.7071 -2.9056 0
M  V30 18 Pb -6.0968 -3.3792 -1.5745 0
M  V30 19 Pb -5.7018 -2.7974 -2.7876 0
M  V30 20 Pb -5.0110 -4.2888 -1.6561 0
M  V30 21 Pd -2.1948 -4.4745 4.5279 0
M  V30 22 Pb -1.8509 -3.9064 5.2738 0
M  V30 23 Pb -2.5250 -4.9911 3.7364 0
M  V30 24 Pb -3.1314 -4.2541 4.7948 0
M  V30 25 Pb -1.2529 -4.5138 4.1957 0
M  V30 26 Pd 0.5688 2.7409 -2.7774 0
M  V30 27 Pb 0.4101 2.4902 -3.7375 0
M  V30 28 Pb 0.7899 2.9216 -1.8266 0
M  V30 29 Pb 1.3761 3.2852 -3.0107 0
M  V30 30 Pb -0.2900 2.3031 -2.4852 0
M  V30 31 Pd 5.1037 3.3552 -0.2097 0
M  V30 32 Pb 5.5653 2.6419 0.3469 0
M  V30 33 Pb 5.9943 3.7523 -0.4142 0
M  V30 34 Pb 4.2012 2.9824 0.0023 0
M  V30 35 Pb 4.6819 3.9312 -0.9113 0
M  V30 36 Pd -2.2369 3.0892 1.7902 0
M  V30 37 Pb -1.2764 3.1018 1.5387 0
M  V30 38 Pb -3.1951 3.1139 2.0888 0
M  V30 39 Pb -2.4509 2.6467 0.9113 0
M  V30 40 Pb -1.9401 3.5067 2.6470 0
M  V30 41 Pd 1.6340 1.2217 3.9646 0
M  V30 42 Pb 1.9131 0.2969 3.7011 0
M  V30 43 Pb 1.2407 2.1014 4.2355 0
M  V30 44 Pb 1.3848 0.8371 4.8502 0
M  V30 45 Pb 1.7644 1.5393 3.0242 0
M  V30 46 Ag -4.7416 -4.7916 -1.1679 0
M  V30 47 Fe -3.7545 -5.1360 0.9660 0
M  V30 48 Ag -2.7717 -5.3422 3.1197 0
M  V30 49 Ag 9.0246 0.1546 -1.6650 0
M  V30 50 Fe 8.3790 2.3717 -1.2181 0
M  V30 51 Ag 6.7009 3.8947 -0.5875 0
M  V30 52 Ag 7.6126 -1.2321 -3.2449 0
M  V30 53 Fe 5.5888 -1.2414 -4.4889 0
M  V30 54 Ag 3.4109 -1.2697 -5.4380 0
M  V30 55 Ag 6.5164 -2.2299 -1.5419 0
M  V30 56 Fe 4.4911 -2.6463 -2.7083 0
M  V30 57 Ag 2.5241 -2.7573 -4.0323 0
M  V30 58 Ag 0.1928 -2.4704 -5.0175 0
M  V30 59 Fe -1.9364 -3.0934 -4.1723 0
M  V30 60 Ag -4.0738 -3.7802 -3.4002 0
M  V30 61 Ag -6.8124 -0.7604 3.1642 0
M  V30 62 Fe -5.3885 -2.3871 4.1476 0
M  V30 63 Ag -3.8077 -3.9699 4.9450 0
M  V30 64 Ag -0.5542 -4.3816 3.9578 0
M  V30 65 Fe 0.8971 -2.5219 3.6771 0
M  V30 66 Ag 2.0196 -0.4317 3.5521 0
M  V30 67 Ag -7.2503 0.9128 0.1712 0
M  V30 68 Fe -6.7320 -0.2868 -1.7926 0
M  V30 69 Ag -5.9663 -2.1461 -3.0257 0
M  V30 70 Ag -1.5412 -3.4307 5.7613 0
M  V30 71 Fe -0.2046 -1.4728 5.8254 0
M  V30 72 Ag 1.1194 0.4552 5.4345 0
M  V30 73 Ba -7.5467 -1.2769 0.9639 0
M  V30 74 Ga -7.0588 -2.2319 -0.0673 0
M  V30 75 Ba -6.6581 -3.2457 -1.0797 0
M  V30 76 Ba -6.4638 1.7202 2.4507 0
M  V30 77 Ga -5.1675 2.4274 2.3920 0
M  V30 78 Ba -3.8942 3.1769 2.3645 0
M  V30 79 Ba 3.5045 2.7382 0.1297 0
M  V30 80 Ga 2.6939 2.2358 1.2555 0
M  V30 81 Ba 1.7821 1.7244 2.2963 0
M  V30 82 Ba -0.9521 2.0262 -2.2420 0
M  V30 83 Ga -1.7532 2.1602 -0.9977 0
M  V30 84 Ba -2.5524 2.2958 0.2476 0
M  V30 85 Ba 0.9808 3.0291 -1.1167 0
M  V30 86 Ga 0.2258 3.0890 0.1375 0
M  V30 87 Ba -0.5519 3.1450 1.3779 0
M  V30 88 Ba 7.4686 -0.3904 0.0394 0
M  V30 89 Ga 6.6985 0.8477 0.3746 0
M  V30 90 Ba 5.9304 2.0832 0.7240 0
M  V30 91 Ba 1.0163 -0.2418 -5.8589 0
M  V30 92 Ga 0.6565 1.0277 -5.1865 0
M  V30 93 Ba 0.3215 2.2707 -4.4544 0
M  V30 94 Ba 1.9531 3.7584 -3.1043 0
M  V30 95 Ga 3.1745 4.0365 -2.3197 0
M  V30 96 Ba 4.3847 4.2808 -1.5068 0
M  V30 97 Ba -1.6068 3.7885 3.2551 0
M  V30 98 Ga -0.3698 3.3126 3.9020 0
M  V30 99 Ba 0.8698 2.7217 4.4406 0
M  V30 END ATOM
M  V30 BEGIN BOND
M  V30 1 1 1 2
M  V30 2 1 1 3
M  V30 3 1 1 4
M  V30 4 1 1 5
M  V30 5 1 6 7
M  V30 6 1 6 8
M  V30 7 1 6 9
M  V30 8 1 6 10
M  V30 9 1 11 12
M  V30 10 1 11 13
M  V30 11 1 11 14
M  V30 12 1 11 15
M  V30 13 1 16 17
M  V30 14 1 16 18
M  V30 15 1 16 19
M  V30 16 1 16 20
M  V30 17 1 21 22
M  V30 18 1 21 23
M  V30 19 1 21 24
M  V30 20 1 21 25
M  V30 21 1 26 27
M  V30 22 1 26 28
M  V30 23 1 26 29
M  V30 24 1 26 30
M  V30 25 1 31 32
M  V30 26 1 31 33
M  V30 27 1 31 34
M  V30 28 1 31 35
M  V30 29 1 36 37
M  V30 30 1 36 38
M  V30 31 1 36 39
M  V30 32 1 36 40
M  V30 33 1 41 42
M  V30 34 1 41 43
M  V30 35 1 41 44
M  V30 36 1 41 45
M  V30 37 1 46 47
M  V30 38 1 47 48
M  V30 39 1 49 50
M  V30 40 1 50 51
M  V30 41 1 52 53
M  V30 42 1 53 54
M  V30 43 1 55 56
M  V30 44 1 56 57
M  V30 45 1 58 59
M  V30 46 1 59 60
M  V30 47 1 61 62
M  V30 48 1 62 63
M  V30 49 1 64 65
M  V30 50 1 65 66
M  V30 51 1 67 68
M  V30 52 1 68 69
M  V30 53 1 70 71
M  V30 54 1 71 72
M  V30 55 1 73 74
M  V30 56 1 74 75
M  V30 57 1 76 77
M  V30 58 1 77 78
M  V30 59 1 79 80
M  V30 60 1 80 81
M  V30 61 1 82 83
M  V30 62 1 83 84
M  V30 63 1 85 86
M  V30 64 1 86 87
M  V30 65 1 88 89
M  V30 66 1 89 90
M  V30 67 1 91 92
M  V30 68 1 92 93
M  V30 69 1 94 95
M  V30 70 1 95 96
M  V30 71 1 97 98
M  V30 72 1 98 99
M  V30 73 1 2 61
M  V30 74 1 3 76
M  V30 75 1 4 73
M  V30 76 1 5 67
M  V30 77 1 7 52
M  V30 78 1 8 88
M  V30 79 1 9 49
M  V30 80 1 10 55
M  V30 81 1 12 54
M  V30 82 1 13 58
M  V30 83 1 14 57
M  V30 84 1 15 91
M  V30 85 1 17 60
M  V30 86 1 18 75
M  V30 87 1 19 69
M  V30 88 1 20 46
M  V30 89 1 22 70
M  V30 90 1 23 48
M  V30 91 1 24 63
M  V30 92 1 25 64
M  V30 93 1 27 93
M  V30 94 1 28 85
M  V30 95 1 29 94
M  V30 96 1 30 82
M  V30 97 1 32 90
M  V30 98 1 33 51
M  V30 99 1 34 79
M  V30 100 1 35 96
M  V30 101 1 37 87
M  V30 102 1 38 78
M  V30 103 1 39 84
M  V30 104 1 40 97
M  V30 105 1 42 66
M  V30 106 1 43 99
M  V30 107 1 44 72
M  V30 108 1 45 81
M  V30 END BOND
M  V30 END CTAB
M  END

$$$$
