
     RDKit          3D

  0  0  0  0  0  0  0  0  0  0999 V3000
M  V30 BEGIN CTAB
M  V30 COUNTS 99 108 0 0 0
M  V30 BEGIN ATOM
M  V30 1 Pd 3.8707 -3.1467 -2.1717 0
M  V30 2 Pb 3.3247 -3.7421 -1.5809 0
M  V30 3 Pb 3.2337 -3.2849 -2.9306 0
M  V30 4 Pb 4.5619 -3.0370 -1.4555 0
M  V30 5 Pb 4.3378 -2.4852 -2.7552 0
M  V30 6 Pd -4.7057 0.1574 -3.5171 0
M  V30 7 Pb -4.1004 -0.0501 -2.7472 0
M  V30 8 Pb -5.1267 0.3576 -4.3989 0
M  V30 9 Pb -4.5280 1.1305 -3.4168 0
M  V30 10 Pb -4.7774 -0.8148 -3.7247 0
M  V30 11 Pd -3.5552 -0.5021 6.0328 0
M  V30 12 Pb -3.1894 -0.8012 6.9068 0
M  V30 13 Pb -3.8955 -0.1588 5.1573 0
M  V30 14 Pb -3.6209 0.4366 6.3657 0
M  V30 15 Pb -3.3552 -1.4228 5.6461 0
M  V30 16 Pd 0.7144 4.5884 4.0990 0
M  V30 17 Pb -0.0786 4.6790 4.6994 0
M  V30 18 Pb 1.1036 3.9193 4.7296 0
M  V30 19 Pb 0.2922 5.1818 3.4148 0
M  V30 20 Pb 1.4841 4.3903 3.4906 0
M  V30 21 Pd -1.3519 2.9544 -0.2536 0
M  V30 22 Pb -1.4204 2.0001 -0.5452 0
M  V30 23 Pb -2.1975 2.7698 0.2454 0
M  V30 24 Pb -1.3084 3.8935 0.0904 0
M  V30 25 Pb -0.4638 3.1040 -0.6988 0
M  V30 26 Pd 4.7469 -1.3894 3.1768 0
M  V30 27 Pb 4.2887 -0.9676 3.9575 0
M  V30 28 Pb 4.7341 -2.2840 3.6262 0
M  V30 29 Pb 5.2239 -1.7858 2.3921 0
M  V30 30 Pb 4.7219 -0.4867 2.7429 0
M  V30 31 Pd 0.7437 -4.4050 4.8119 0
M  V30 32 Pb 0.7879 -4.6242 3.8360 0
M  V30 33 Pb 1.7301 -4.5629 4.8646 0
M  V30 34 Pb -0.2517 -4.1875 4.7612 0
M  V30 35 Pb 0.7147 -4.2336 5.7901 0
M  V30 36 Pd 1.3671 2.8877 -5.1578 0
M  V30 37 Pb 1.6038 3.1301 -4.2173 0
M  V30 38 Pb 1.0822 2.5811 -6.0701 0
M  V30 39 Pb 0.4993 3.3544 -5.0148 0
M  V30 40 Pb 2.2267 2.3842 -5.2366 0
M  V30 41 Pd -1.9543 -1.0643 -7.0160 0
M  V30 42 Pb -2.7804 -0.5296 -7.2071 0
M  V30 43 Pb -1.1617 -1.6274 -6.7832 0
M  V30 44 Pb -1.3669 -0.3552 -7.4188 0
M  V30 45 Pb -2.5388 -1.7517 -6.5826 0
M  V30 46 Ag 2.8717 -4.1472 -1.1397 0
M  V30 47 Fe 1.8656 -4.4920 0.9854 0
M  V30 48 Ag 0.8669 -4.8239 3.1160 0
M  V30 49 Ag 1.4000 3.3616 5.1310 0
M  V30 50 Fe 2.6693 1.3645 4.9543 0
M  V30 51 Ag 3.9498 -0.5814 4.5019 0
M  V30 52 Ag -2.8088 -1.0925 7.4700 0
M  V30 53 Fe -1.0117 -2.6136 7.4727 0
M  V30 54 Ag 0.5814 -4.0444 6.4932 0
M  V30 55 Ag 2.0555 4.1419 3.0710 0
M  V30 56 Fe 3.4227 2.2378 2.6774 0
M  V30 57 Ag 4.6495 0.2120 2.4746 0
M  V30 58 Ag -3.5745 1.1659 6.5244 0
M  V30 59 Fe -2.2371 3.0418 5.9591 0
M  V30 60 Ag -0.6769 4.6337 5.1468 0
M  V30 61 Ag -4.2911 1.8341 -3.4560 0
M  V30 62 Fe -2.3155 2.9649 -4.1042 0
M  V30 63 Ag -0.1624 3.6376 -4.8215 0
M  V30 64 Ag 4.5826 -1.9492 -3.2161 0
M  V30 65 Fe 3.8579 0.0365 -4.2948 0
M  V30 66 Ag 2.8543 1.9751 -5.2260 0
M  V30 67 Ag 2.8144 -3.3811 -3.5457 0
M  V30 68 Fe 1.0983 -2.7123 -5.0456 0
M  V30 69 Ag -0.6073 -2.0883 -6.5765 0
M  V30 70 Ag -4.1292 0.1763 4.5279 0
M  V30 71 Fe -3.5383 1.3660 2.5592 0
M  V30 72 Ag -2.7966 2.5371 0.6308 0
M  V30 73 Ba -3.5622 -0.2224 -2.2512 0
M  V30 74 Ga -2.5600 0.5300 -1.4687 0
M  V30 75 Ba -1.5547 1.2739 -0.6820 0
M  V30 76 Ba 0.2253 3.2505 -0.9696 0
M  V30 77 Ga 0.9652 3.2611 -2.2492 0
M  V30 78 Ba 1.7531 3.2889 -3.4998 0
M  V30 79 Ba -0.0438 5.5729 2.8713 0
M  V30 80 Ga -0.6601 5.1233 1.6086 0
M  V30 81 Ba -1.2538 4.5892 0.3682 0
M  V30 82 Ba -3.2013 -2.1127 5.3445 0
M  V30 83 Ga -2.0537 -3.0339 5.0627 0
M  V30 84 Ba -1.0084 -4.0518 4.7216 0
M  V30 85 Ba -4.7481 -1.5169 -3.9763 0
M  V30 86 Ga -3.9023 -1.9727 -5.0918 0
M  V30 87 Ba -2.9909 -2.2288 -6.2198 0
M  V30 88 Ba -5.3027 0.4971 -5.1124 0
M  V30 89 Ga -4.4350 0.2009 -6.2683 0
M  V30 90 Ba -3.4372 -0.1719 -7.2898 0
M  V30 91 Ba 5.1166 -2.9777 -0.9522 0
M  V30 92 Ga 5.3193 -2.5188 0.4358 0
M  V30 93 Ba 5.6035 -2.0809 1.8164 0
M  V30 94 Ba 0.8587 2.3303 -6.7450 0
M  V30 95 Ga -0.0381 1.2526 -7.2226 0
M  V30 96 Ba -0.9302 0.1810 -7.7221 0
M  V30 97 Ba 4.7060 -2.9541 3.9647 0
M  V30 98 Ga 3.6038 -3.8172 4.4330 0
M  V30 99 Ba 2.4749 -4.6525 4.8881 0
M  V30 END ATOM
M  V30 BEGIN BOND
M  V30 1 1 1 2
M  V30 2 1 1 3
M  V30 3 1 1 4
M  V30 4 1 1 5
M  V30 5 1 6 7
M  V30 6 1 6 8
M  V30 7 1 6 9
M  V30 8 1 6 10
M  V30 9 1 11 12
M  V30 10 1 11 13
M  V30 11 1 11 14
M  V30 12 1 11 15
M  V30 13 1 16 17
M  V30 14 1 16 18
M  V30 15 1 16 19
M  V30 16 1 16 20
M  V30 17 1 21 22
M  V30 18 1 21 23
M  V30 19 1 21 24
M  V30 20 1 21 25
M  V30 21 1 26 27
M  V30 22 1 26 28
M  V30 23 1 26 29
M  V30 24 1 26 30
M  V30 25 1 31 32
M  V30 26 1 31 33
M  V30 27 1 31 34
M  V30 28 1 31 35
M  V30 29 1 36 37
M  V30 30 1 36 38
M  V30 31 1 36 39
M  V30 32 1 36 40
M  V30 33 1 41 42
M  V30 34 1 41 43
M  V30 35 1 41 44
M  V30 36 1 41 45
M  V30 37 1 46 47
M  V30 38 1 47 48
M  V30 39 1 49 50
M  V30 40 1 50 51
M  V30 41 1 52 53
M  V30 42 1 53 54
M  V30 43 1 55 56
M  V30 44 1 56 57
M  V30 45 1 58 59
M  V30 46 1 59 60
M  V30 47 1 61 62
M  V30 48 1 62 63
M  V30 49 1 64 65
M  V30 50 1 65 66
M  V30 51 1 67 68
M  V30 52 1 68 69
M  V30 53 1 70 71
M  V30 54 1 71 72
M  V30 55 1 73 74
M  V30 56 1 74 75
M  V30 57 1 76 77
M  V30 58 1 77 78
M  V30 59 1 79 80
M  V30 60 1 80 81
M  V30 61 1 82 83
M  V30 62 1 83 84
M  V30 63 1 85 86
M  V30 64 1 86 87
M  V30 65 1 88 89
M  V30 66 1 89 90
M  V30 67 1 91 92
M  V30 68 1 92 93
M  V30 69 1 94 95
M  V30 70 1 95 96
M  V30 71 1 97 98
M  V30 72 1 98 99
M  V30 73 1 2 46
M  V30 74 1 3 67
M  V30 75 1 4 91
M  V30 76 1 5 64
M  V30 77 1 7 73
M  V30 78 1 8 88
M  V30 79 1 9 61
M  V30 80 1 10 85
M  V30 81 1 12 52
M  V30 82 1 13 70
M  V30 83 1 14 58
M  V30 84 1 15 82
M  V30 85 1 17 60
M  V30 86 1 18 49
M  V30 87 1 19 79
M  V30 88 1 20 55
M  V30 89 1 22 75
M  V30 90 1 23 72
M  V30 91 1 24 81
M  V30 92 1 25 76
M  V30 93 1 27 51
M  V30 94 1 28 97
M  V30 95 1 29 93
M  V30 96 1 30 57
M  V30 97 1 32 48
M  V30 98 1 33 99
M  V30 99 1 34 84
M  V30 100 1 35 54
M  V30 101 1 37 78
M  V30 102 1 38 94
M  V30 103 1 39 63
M  V30 104 1 40 66
M  V30 105 1 42 90
M  V30 106 1 43 69
M  V30 107 1 44 96
M  V30 108 1 45 87
M  V30 END BOND
M  V30 END CTAB
M  END

$$$$
