
     RDKit          3D

  0  0  0  0  0  0  0  0  0  0999 V3000
M  V30 BEGIN CTAB
M  V30 COUNTS 99 108 0 0 0
M  V30 BEGIN ATOM
M  V30 1 Pd 3.5125 -1.2531 0.7311 0
M  V30 2 Pb 3.9404 -1.2325 1.6366 0
M  V30 3 Pb 2.8286 -0.6198 1.0924 0
M  V30 4 Pb 4.1441 -1.9527 0.3950 0
M  V30 5 Pb 3.1298 -1.2240 -0.1941 0
M  V30 6 Pd -0.5118 6.3948 -2.4067 0
M  V30 7 Pb -1.3069 5.9831 -2.8643 0
M  V30 8 Pb 0.2215 6.9175 -1.9724 0
M  V30 9 Pb 0.1195 6.1857 -3.1605 0
M  V30 10 Pb -1.0771 6.5729 -1.5968 0
M  V30 11 Pd -4.7459 -0.9157 3.4050 0
M  V30 12 Pb -4.1180 -0.2590 3.8295 0
M  V30 13 Pb -5.0789 -0.2473 2.7373 0
M  V30 14 Pb -5.2363 -1.6455 2.9319 0
M  V30 15 Pb -4.3944 -1.5853 4.0542 0
M  V30 16 Pd -2.4899 -5.5766 -1.6813 0
M  V30 17 Pb -3.3013 -5.4663 -1.1069 0
M  V30 18 Pb -2.1035 -6.2540 -1.0566 0
M  V30 19 Pb -2.8908 -4.8983 -2.2970 0
M  V30 20 Pb -1.6567 -5.6455 -2.2353 0
M  V30 21 Pd -4.0849 1.8423 -3.7055 0
M  V30 22 Pb -3.9378 2.8345 -3.7168 0
M  V30 23 Pb -4.6222 1.9028 -2.8630 0
M  V30 24 Pb -4.2124 0.8508 -3.7456 0
M  V30 25 Pb -3.4886 1.7624 -4.4978 0
M  V30 26 Pd 2.4636 -6.2860 -0.1708 0
M  V30 27 Pb 1.6409 -6.8066 0.0553 0
M  V30 28 Pb 2.7735 -6.3673 0.7751 0
M  V30 29 Pb 3.2809 -5.7409 -0.3720 0
M  V30 30 Pb 2.1086 -6.1710 -1.1008 0
M  V30 31 Pd 1.8371 -2.2041 5.7203 0
M  V30 32 Pb 2.6767 -1.7786 5.3843 0
M  V30 33 Pb 2.2802 -3.0900 5.6038 0
M  V30 34 Pb 0.9849 -2.6462 5.9855 0
M  V30 35 Pb 1.3260 -1.3404 5.7249 0
M  V30 36 Pd 2.8505 2.2641 -3.7273 0
M  V30 37 Pb 2.2575 2.0265 -4.4900 0
M  V30 38 Pb 3.3994 2.5208 -2.9327 0
M  V30 39 Pb 2.7579 3.2209 -4.0182 0
M  V30 40 Pb 2.8190 1.3080 -3.4248 0
M  V30 41 Pd 1.1989 5.7809 2.0317 0
M  V30 42 Pb 1.5039 6.6123 1.5807 0
M  V30 43 Pb 0.9017 4.8837 2.3453 0
M  V30 44 Pb 2.1115 5.4010 1.9071 0
M  V30 45 Pb 0.2573 6.1110 1.9698 0
M  V30 46 Ag -2.9652 1.6891 -5.0215 0
M  V30 47 Fe -0.6094 1.7426 -5.2398 0
M  V30 48 Ag 1.7414 1.8875 -5.0079 0
M  V30 49 Ag -3.2408 -4.3915 -2.7251 0
M  V30 50 Fe -3.7442 -2.1330 -3.2624 0
M  V30 51 Ag -4.2793 0.1088 -3.8375 0
M  V30 52 Ag -4.0630 -2.0520 4.5328 0
M  V30 53 Fe -1.9473 -2.6223 5.4340 0
M  V30 54 Ag 0.3031 -2.9197 6.1127 0
M  V30 55 Ag -3.5571 0.1276 4.1516 0
M  V30 56 Fe -1.3374 -0.1582 4.9620 0
M  V30 57 Ag 0.8515 -0.7557 5.6816 0
M  V30 58 Ag -5.4935 -2.2362 2.5509 0
M  V30 59 Fe -4.8215 -3.8404 0.9349 0
M  V30 60 Ag -3.9027 -5.3129 -0.6853 0
M  V30 61 Ag 3.7521 2.7321 -2.3068 0
M  V30 62 Fe 3.4458 3.8738 -0.2507 0
M  V30 63 Ag 2.7381 5.0745 1.6678 0
M  V30 64 Ag 2.3225 -0.1775 1.4252 0
M  V30 65 Fe 1.4792 1.9666 1.9934 0
M  V30 66 Ag 0.7402 4.1681 2.4812 0
M  V30 67 Ag 2.9740 -6.3759 1.4961 0
M  V30 68 Fe 2.8613 -5.1697 3.5355 0
M  V30 69 Ag 2.5848 -3.7443 5.4110 0
M  V30 70 Ag -5.3325 0.2330 2.2175 0
M  V30 71 Fe -5.1885 1.1069 0.0120 0
M  V30 72 Ag -4.9867 1.9338 -2.2070 0
M  V30 73 Ba -1.9558 5.7790 -3.1934 0
M  V30 74 Ga -2.8452 4.6246 -3.4530 0
M  V30 75 Ba -3.8358 3.5771 -3.7901 0
M  V30 76 Ba 4.2501 -1.1543 2.3173 0
M  V30 77 Ga 3.7927 -1.3333 3.7096 0
M  V30 78 Ba 3.3181 -1.5199 5.0950 0
M  V30 79 Ba -1.7886 -6.7593 -0.6018 0
M  V30 80 Ga -0.3970 -6.9896 -0.1741 0
M  V30 81 Ba 1.0104 -7.1757 0.2222 0
M  V30 82 Ba -1.4472 6.6944 -0.9515 0
M  V30 83 Ga -1.0082 6.5440 0.4524 0
M  V30 84 Ba -0.4343 6.3479 1.8007 0
M  V30 85 Ba 0.7291 7.3481 -1.6270 0
M  V30 86 Ga 1.2677 7.3306 -0.2595 0
M  V30 87 Ba 1.7103 7.1680 1.1322 0
M  V30 88 Ba -1.0121 -5.6966 -2.6213 0
M  V30 89 Ga 0.3993 -5.8902 -2.2238 0
M  V30 90 Ba 1.7965 -6.0854 -1.7800 0
M  V30 91 Ba 0.6573 6.0584 -3.6759 0
M  V30 92 Ga 1.6317 4.9799 -3.9682 0
M  V30 93 Ba 2.6147 3.9146 -4.2790 0
M  V30 94 Ba 4.5634 -2.5067 0.1101 0
M  V30 95 Ga 4.2557 -3.9200 -0.1935 0
M  V30 96 Ba 3.8997 -5.3256 -0.4793 0
M  V30 97 Ba 2.9009 -1.2343 -0.9102 0
M  V30 98 Ga 2.8215 -0.2885 -2.0442 0
M  V30 99 Ba 2.7110 0.5881 -3.2297 0
M  V30 END ATOM
M  V30 BEGIN BOND
M  V30 1 1 1 2
M  V30 2 1 1 3
M  V30 3 1 1 4
M  V30 4 1 1 5
M  V30 5 1 6 7
M  V30 6 1 6 8
M  V30 7 1 6 9
M  V30 8 1 6 10
M  V30 9 1 11 12
M  V30 10 1 11 13
M  V30 11 1 11 14
M  V30 12 1 11 15
M  V30 13 1 16 17
M  V30 14 1 16 18
M  V30 15 1 16 19
M  V30 16 1 16 20
M  V30 17 1 21 22
M  V30 18 1 21 23
M  V30 19 1 21 24
M  V30 20 1 21 25
M  V30 21 1 26 27
M  V30 22 1 26 28
M  V30 23 1 26 29
M  V30 24 1 26 30
M  V30 25 1 31 32
M  V30 26 1 31 33
M  V30 27 1 31 34
M  V30 28 1 31 35
M  V30 29 1 36 37
M  V30 30 1 36 38
M  V30 31 1 36 39
M  V30 32 1 36 40
M  V30 33 1 41 42
M  V30 34 1 41 43
M  V30 35 1 41 44
M  V30 36 1 41 45
M  V30 37 1 46 47
M  V30 38 1 47 48
M  V30 39 1 49 50
M  V30 40 1 50 51
M  V30 41 1 52 53
M  V30 42 1 53 54
M  V30 43 1 55 56
M  V30 44 1 56 57
M  V30 45 1 58 59
M  V30 46 1 59 60
M  V30 47 1 61 62
M  V30 48 1 62 63
M  V30 49 1 64 65
M  V30 50 1 65 66
M  V30 51 1 67 68
M  V30 52 1 68 69
M  V30 53 1 70 71
M  V30 54 1 71 72
M  V30 55 1 73 74
M  V30 56 1 74 75
M  V30 57 1 76 77
M  V30 58 1 77 78
M  V30 59 1 79 80
M  V30 60 1 80 81
M  V30 61 1 82 83
M  V30 62 1 83 84
M  V30 63 1 85 86
M  V30 64 1 86 87
M  V30 65 1 88 89
M  V30 66 1 89 90
M  V30 67 1 91 92
M  V30 68 1 92 93
M  V30 69 1 94 95
M  V30 70 1 95 96
M  V30 71 1 97 98
M  V30 72 1 98 99
M  V30 73 1 2 76
M  V30 74 1 3 64
M  V30 75 1 4 94
M  V30 76 1 5 97
M  V30 77 1 7 73
M  V30 78 1 8 85
M  V30 79 1 9 91
M  V30 80 1 10 82
M  V30 81 1 12 55
M  V30 82 1 13 70
M  V30 83 1 14 58
M  V30 84 1 15 52
M  V30 85 1 17 60
M  V30 86 1 18 79
M  V30 87 1 19 49
M  V30 88 1 20 88
M  V30 89 1 22 75
M  V30 90 1 23 72
M  V30 91 1 24 51
M  V30 92 1 25 46
M  V30 93 1 27 81
M  V30 94 1 28 67
M  V30 95 1 29 96
M  V30 96 1 30 90
M  V30 97 1 32 78
M  V30 98 1 33 69
M  V30 99 1 34 54
M  V30 100 1 35 57
M  V30 101 1 37 48
M  V30 102 1 38 61
M  V30 103 1 39 93
M  V30 104 1 40 99
M  V30 105 1 42 87
M  V30 106 1 43 66
M  V30 107 1 44 63
M  V30 108 1 45 84
M  V30 END BOND
M  V30 END CTAB
M  END

$$$$
