
     RDKit          3D

  0  0  0  0  0  0  0  0  0  0999 V3000
M  V30 BEGIN CTAB
M  V30 COUNTS 99 108 0 0 0
M  V30 BEGIN ATOM
M  V30 1 Pd 4.5517 3.5024 1.6530 0
M  V30 2 Pb 5.2370 2.8370 1.9327 0
M  V30 3 Pb 5.2544 4.1024 1.2735 0
M  V30 4 Pb 3.8614 4.1481 1.3239 0
M  V30 5 Pb 3.8700 2.8397 1.9752 0
M  V30 6 Pd 4.4049 4.8775 -2.9914 0
M  V30 7 Pb 5.0075 4.3401 -3.5837 0
M  V30 8 Pb 3.7843 5.3032 -2.3334 0
M  V30 9 Pb 5.1682 5.1425 -2.4040 0
M  V30 10 Pb 3.6320 4.5779 -3.5456 0
M  V30 11 Pd -2.2502 -0.3616 4.5950 0
M  V30 12 Pb -2.4489 -1.3069 4.8669 0
M  V30 13 Pb -2.0201 0.5628 4.2772 0
M  V30 14 Pb -3.2087 -0.1534 4.3924 0
M  V30 15 Pb -1.3023 -0.5748 4.8258 0
M  V30 16 Pd -7.9753 -0.8564 -0.2796 0
M  V30 17 Pb -8.0548 -0.0109 -0.8063 0
M  V30 18 Pb -7.7539 -1.6953 0.2074 0
M  V30 19 Pb -8.0380 -1.3667 -1.1344 0
M  V30 20 Pb -7.8016 -0.3690 0.5741 0
M  V30 21 Pd 4.1037 -3.6780 2.2642 0
M  V30 22 Pb 3.3942 -4.3743 2.1457 0
M  V30 23 Pb 4.4770 -3.8486 1.3531 0
M  V30 24 Pb 3.6808 -3.3800 3.1166 0
M  V30 25 Pb 4.8048 -2.9813 2.3934 0
M  V30 26 Pd 3.5226 0.0985 -3.9370 0
M  V30 27 Pb 4.3292 0.5829 -4.2821 0
M  V30 28 Pb 2.7165 -0.3377 -3.5398 0
M  V30 29 Pb 2.9615 0.8588 -4.2596 0
M  V30 30 Pb 4.0648 -0.6737 -3.6024 0
M  V30 31 Pd -1.6731 -4.6129 1.8424 0
M  V30 32 Pb -0.7240 -4.9364 1.9008 0
M  V30 33 Pb -1.5833 -4.4938 0.8520 0
M  V30 34 Pb -1.7969 -4.6081 2.8353 0
M  V30 35 Pb -2.6543 -4.4370 1.7807 0
M  V30 36 Pd -0.1909 1.2319 0.1362 0
M  V30 37 Pb -0.8221 1.5884 -0.5533 0
M  V30 38 Pb -0.5486 1.8418 0.8437 0
M  V30 39 Pb 0.4889 0.9603 0.8156 0
M  V30 40 Pb 0.1097 0.5427 -0.5272 0
M  V30 41 Pd -4.5181 -0.1381 -3.3409 0
M  V30 42 Pb -5.2003 -0.8389 -3.5444 0
M  V30 43 Pb -5.2609 0.5326 -3.3020 0
M  V30 44 Pb -3.8080 -0.8422 -3.2807 0
M  V30 45 Pb -3.8668 0.5873 -3.1178 0
M  V30 46 Ag -3.9156 0.0472 4.2343 0
M  V30 47 Fe -5.7889 0.0262 2.7738 0
M  V30 48 Ag -7.5912 -0.0761 1.2301 0
M  V30 49 Ag -1.5441 -4.3271 0.1200 0
M  V30 50 Fe -2.3705 -2.9049 -1.5964 0
M  V30 51 Ag -3.3129 -1.3984 -3.1758 0
M  V30 52 Ag 4.7392 -3.8581 0.6510 0
M  V30 53 Fe 4.6572 -2.6497 -1.3924 0
M  V30 54 Ag 4.4095 -1.2757 -3.3143 0
M  V30 55 Ag -0.6198 -0.8126 5.0226 0
M  V30 56 Fe 1.3850 -1.9348 4.4291 0
M  V30 57 Ag 3.3394 -3.0683 3.7038 0
M  V30 58 Ag 5.6783 2.2679 2.1228 0
M  V30 59 Fe 5.6413 -0.0900 2.3495 0
M  V30 60 Ag 5.3008 -2.4309 2.4838 0
M  V30 61 Ag -7.4859 -2.2918 0.5645 0
M  V30 62 Fe -5.4615 -3.3638 1.1805 0
M  V30 63 Ag -3.4018 -4.3843 1.7664 0
M  V30 64 Ba -1.2459 1.8889 -1.0951 0
M  V30 65 Ga -2.3350 1.4863 -2.0055 0
M  V30 66 Ba -3.4218 1.1678 -2.9512 0
M  V30 67 Ba 3.0706 4.2951 -3.9489 0
M  V30 68 Ga 2.7633 2.8893 -4.2541 0
M  V30 69 Ba 2.5642 1.4506 -4.4878 0
M  V30 70 Ba 5.7583 4.5332 0.9253 0
M  V30 71 Ga 5.7953 4.9669 -0.4819 0
M  V30 72 Ba 5.6995 5.3224 -1.9081 0
M  V30 73 Ba -7.9883 -1.7280 -1.7864 0
M  V30 74 Ga -6.9130 -1.5957 -2.7816 0
M  V30 75 Ba -5.7577 -1.3270 -3.6522 0
M  V30 76 Ba 3.3891 4.6465 1.0200 0
M  V30 77 Ga 3.3071 5.1449 -0.3665 0
M  V30 78 Ba 3.3379 5.5517 -1.7846 0
M  V30 79 Ba 3.4332 2.2715 2.2105 0
M  V30 80 Ga 2.2100 1.5628 1.7793 0
M  V30 81 Ba 0.9862 0.8453 1.3644 0
M  V30 82 Ba 5.4175 3.8687 -4.0016 0
M  V30 83 Ga 5.2090 2.4348 -4.2946 0
M  V30 84 Ba 4.9030 1.0065 -4.5220 0
M  V30 85 Ba -2.5090 -2.0325 5.0634 0
M  V30 86 Ga -2.2478 -3.2997 4.3455 0
M  V30 87 Ba -1.9715 -4.5236 3.5613 0
M  V30 88 Ba 2.1265 -0.6644 -3.2138 0
M  V30 89 Ga 1.2094 -0.3066 -2.1134 0
M  V30 90 Ba 0.2636 -0.0045 -1.0209 0
M  V30 91 Ba 2.8748 -4.9123 2.0772 0
M  V30 92 Ga 1.4024 -5.0237 1.9997 0
M  V30 93 Ba -0.0514 -5.2781 1.9137 0
M  V30 94 Ba -8.0201 0.5845 -1.2603 0
M  V30 95 Ga -6.9732 0.8695 -2.2607 0
M  V30 96 Ba -5.8458 0.9945 -3.2052 0
M  V30 97 Ba -1.8782 1.2529 4.0077 0
M  V30 98 Ga -1.3436 1.7728 2.7304 0
M  V30 99 Ba -0.8008 2.2320 1.4336 0
M  V30 END ATOM
M  V30 BEGIN BOND
M  V30 1 1 1 2
M  V30 2 1 1 3
M  V30 3 1 1 4
M  V30 4 1 1 5
M  V30 5 1 6 7
M  V30 6 1 6 8
M  V30 7 1 6 9
M  V30 8 1 6 10
M  V30 9 1 11 12
M  V30 10 1 11 13
M  V30 11 1 11 14
M  V30 12 1 11 15
M  V30 13 1 16 17
M  V30 14 1 16 18
M  V30 15 1 16 19
M  V30 16 1 16 20
M  V30 17 1 21 22
M  V30 18 1 21 23
M  V30 19 1 21 24
M  V30 20 1 21 25
M  V30 21 1 26 27
M  V30 22 1 26 28
M  V30 23 1 26 29
M  V30 24 1 26 30
M  V30 25 1 31 32
M  V30 26 1 31 33
M  V30 27 1 31 34
M  V30 28 1 31 35
M  V30 29 1 36 37
M  V30 30 1 36 38
M  V30 31 1 36 39
M  V30 32 1 36 40
M  V30 33 1 41 42
M  V30 34 1 41 43
M  V30 35 1 41 44
M  V30 36 1 41 45
M  V30 37 1 46 47
M  V30 38 1 47 48
M  V30 39 1 49 50
M  V30 40 1 50 51
M  V30 41 1 52 53
M  V30 42 1 53 54
M  V30 43 1 55 56
M  V30 44 1 56 57
M  V30 45 1 58 59
M  V30 46 1 59 60
M  V30 47 1 61 62
M  V30 48 1 62 63
M  V30 49 1 64 65
M  V30 50 1 65 66
M  V30 51 1 67 68
M  V30 52 1 68 69
M  V30 53 1 70 71
M  V30 54 1 71 72
M  V30 55 1 73 74
M  V30 56 1 74 75
M  V30 57 1 76 77
M  V30 58 1 77 78
M  V30 59 1 79 80
M  V30 60 1 80 81
M  V30 61 1 82 83
M  V30 62 1 83 84
M  V30 63 1 85 86
M  V30 64 1 86 87
M  V30 65 1 88 89
M  V30 66 1 89 90
M  V30 67 1 91 92
M  V30 68 1 92 93
M  V30 69 1 94 95
M  V30 70 1 95 96
M  V30 71 1 97 98
M  V30 72 1 98 99
M  V30 73 1 2 58
M  V30 74 1 3 70
M  V30 75 1 4 76
M  V30 76 1 5 79
M  V30 77 1 7 82
M  V30 78 1 8 78
M  V30 79 1 9 72
M  V30 80 1 10 67
M  V30 81 1 12 85
M  V30 82 1 13 97
M  V30 83 1 14 46
M  V30 84 1 15 55
M  V30 85 1 17 94
M  V30 86 1 18 61
M  V30 87 1 19 73
M  V30 88 1 20 48
M  V30 89 1 22 91
M  V30 90 1 23 52
M  V30 91 1 24 57
M  V30 92 1 25 60
M  V30 93 1 27 84
M  V30 94 1 28 88
M  V30 95 1 29 69
M  V30 96 1 30 54
M  V30 97 1 32 93
M  V30 98 1 33 49
M  V30 99 1 34 87
M  V30 100 1 35 63
M  V30 101 1 37 64
M  V30 102 1 38 99
M  V30 103 1 39 81
M  V30 104 1 40 90
M  V30 105 1 42 75
M  V30 106 1 43 96
M  V30 107 1 44 51
M  V30 108 1 45 66
M  V30 END BOND
M  V30 END CTAB
M  END

$$$$
