
     RDKit          3D

  0  0  0  0  0  0  0  0  0  0999 V3000
M  V30 BEGIN CTAB
M  V30 COUNTS 99 108 0 0 0
M  V30 BEGIN ATOM
M  V30 1 Pd -2.0542 -3.1184 -0.3691 0
M  V30 2 Pb -2.6293 -3.7630 0.1360 0
M  V30 3 Pb -1.4723 -2.4454 -0.8313 0
M  V30 4 Pb -1.4137 -3.8514 -0.6028 0
M  V30 5 Pb -2.6682 -2.3704 -0.1253 0
M  V30 6 Pd 1.0520 3.7961 -7.6222 0
M  V30 7 Pb 1.4019 4.2029 -6.7773 0
M  V30 8 Pb 1.4751 2.9043 -7.4022 0
M  V30 9 Pb 0.3934 4.5393 -7.6846 0
M  V30 10 Pb 0.6735 3.4026 -8.4555 0
M  V30 11 Pd -0.4670 0.3776 5.9246 0
M  V30 12 Pb -0.3296 -0.4845 6.4062 0
M  V30 13 Pb -0.6378 1.2558 5.4768 0
M  V30 14 Pb 0.4821 0.6278 6.1300 0
M  V30 15 Pb -1.4072 0.0940 5.7182 0
M  V30 16 Pd 4.7848 0.2568 3.6797 0
M  V30 17 Pb 4.2667 0.4369 4.5205 0
M  V30 18 Pb 4.9420 -0.7208 3.9266 0
M  V30 19 Pb 4.6275 1.1978 3.3829 0
M  V30 20 Pb 5.3272 0.1187 2.8593 0
M  V30 21 Pd 0.1990 5.3129 -0.0061 0
M  V30 22 Pb 0.6552 5.4396 -0.8884 0
M  V30 23 Pb -0.2293 5.1500 0.8814 0
M  V30 24 Pb 1.0759 5.0773 0.4121 0
M  V30 25 Pb -0.6846 5.5967 -0.3848 0
M  V30 26 Pd 4.3376 -5.3320 1.9080 0
M  V30 27 Pb 4.7126 -4.7562 2.6585 0
M  V30 28 Pb 3.6880 -5.7713 2.5252 0
M  V30 29 Pb 3.8330 -5.7471 1.1545 0
M  V30 30 Pb 4.9669 -4.9048 1.2692 0
M  V30 31 Pd -2.3626 -4.3124 4.8371 0
M  V30 32 Pb -2.8750 -4.6138 4.0311 0
M  V30 33 Pb -1.7452 -5.0906 4.7607 0
M  V30 34 Pb -2.8980 -3.4693 4.8988 0
M  V30 35 Pb -1.8265 -4.0140 5.6232 0
M  V30 36 Pd -4.1126 3.4372 -3.0577 0
M  V30 37 Pb -3.8699 4.2605 -2.5444 0
M  V30 38 Pb -4.3249 2.5833 -3.5426 0
M  V30 39 Pb -3.9278 3.9533 -3.8961 0
M  V30 40 Pb -4.2711 2.9230 -2.2179 0
M  V30 41 Pd -1.2869 -0.5134 -5.3303 0
M  V30 42 Pb -0.3464 -0.3299 -5.6688 0
M  V30 43 Pb -0.9582 -0.4801 -4.3849 0
M  V30 44 Pb -2.2434 -0.5050 -5.0371 0
M  V30 45 Pb -1.5966 -0.5973 -6.2732 0
M  V30 46 Ag 1.6354 4.5384 -6.1475 0
M  V30 47 Fe 1.3255 5.0183 -3.8408 0
M  V30 48 Ag 1.0324 5.5103 -1.5345 0
M  V30 49 Ag 4.5149 1.8884 3.1150 0
M  V30 50 Fe 3.1215 3.4111 1.9413 0
M  V30 51 Ag 1.7193 4.9241 0.7654 0
M  V30 52 Ag 0.3102 2.9963 -8.9568 0
M  V30 53 Fe -0.9406 1.0498 -8.5371 0
M  V30 54 Ag -1.7274 -0.5484 -7.0012 0
M  V30 55 Ag 5.7011 -0.0974 2.2587 0
M  V30 56 Fe 5.8803 -2.1743 1.1672 0
M  V30 57 Ag 5.4034 -4.4592 0.8731 0
M  V30 58 Ag -0.2216 4.9518 -7.5989 0
M  V30 59 Fe -2.0784 4.8332 -6.1256 0
M  V30 60 Ag -3.7340 4.3766 -4.4864 0
M  V30 61 Ag -0.9041 -4.3816 -0.7542 0
M  V30 62 Fe 1.2145 -5.2861 -0.1797 0
M  V30 63 Ag 3.3448 -5.9532 0.6274 0
M  V30 64 Ag -3.0919 -1.7745 0.0320 0
M  V30 65 Fe -3.7966 0.3673 -0.7042 0
M  V30 66 Ag -4.3714 2.4746 -1.6286 0
M  V30 67 Ag 3.1585 -6.1075 2.9328 0
M  V30 68 Fe 0.9818 -5.9607 3.8629 0
M  V30 69 Ag -1.2039 -5.6021 4.7101 0
M  V30 70 Ag -0.8045 1.9136 5.1563 0
M  V30 71 Fe -0.6651 3.4625 3.3617 0
M  V30 72 Ag -0.5129 4.9992 1.5578 0
M  V30 73 Ba -3.0605 -4.2282 0.5376 0
M  V30 74 Ga -3.1594 -4.5438 1.9767 0
M  V30 75 Ba -3.2442 -4.8469 3.4194 0
M  V30 76 Ba -1.3529 5.8432 -0.6269 0
M  V30 77 Ga -2.5015 5.3403 -1.4068 0
M  V30 78 Ba -3.6752 4.8865 -2.1797 0
M  V30 79 Ba 5.1020 -1.4495 4.1184 0
M  V30 80 Ga 4.9995 -2.8578 3.6159 0
M  V30 81 Ba 4.9580 -4.3055 3.2302 0
M  V30 82 Ba -2.1068 -0.1409 5.5664 0
M  V30 83 Ga -2.7012 -1.4589 5.2582 0
M  V30 84 Ba -3.2384 -2.8024 4.9550 0
M  V30 85 Ba 1.6988 2.2025 -7.2005 0
M  V30 86 Ga 1.0167 1.0310 -6.5668 0
M  V30 87 Ba 0.3504 -0.1499 -5.9341 0
M  V30 88 Ba -0.2609 -1.1333 6.7701 0
M  V30 89 Ga -0.8141 -2.4711 6.5120 0
M  V30 90 Ba -1.4007 -3.7808 6.1910 0
M  V30 91 Ba 1.1948 0.7821 6.3165 0
M  V30 92 Ga 2.5360 0.6874 5.6992 0
M  V30 93 Ba 3.9115 0.6242 5.1586 0
M  V30 94 Ba -4.4907 1.9010 -3.8207 0
M  V30 95 Ga -3.7358 0.7425 -4.3486 0
M  V30 96 Ba -2.9716 -0.4090 -4.8784 0
M  V30 97 Ba -1.0413 -1.9069 -1.1326 0
M  V30 98 Ga -0.8844 -1.2084 -2.4253 0
M  V30 99 Ba -0.6754 -0.4709 -3.6887 0
M  V30 END ATOM
M  V30 BEGIN BOND
M  V30 1 1 1 2
M  V30 2 1 1 3
M  V30 3 1 1 4
M  V30 4 1 1 5
M  V30 5 1 6 7
M  V30 6 1 6 8
M  V30 7 1 6 9
M  V30 8 1 6 10
M  V30 9 1 11 12
M  V30 10 1 11 13
M  V30 11 1 11 14
M  V30 12 1 11 15
M  V30 13 1 16 17
M  V30 14 1 16 18
M  V30 15 1 16 19
M  V30 16 1 16 20
M  V30 17 1 21 22
M  V30 18 1 21 23
M  V30 19 1 21 24
M  V30 20 1 21 25
M  V30 21 1 26 27
M  V30 22 1 26 28
M  V30 23 1 26 29
M  V30 24 1 26 30
M  V30 25 1 31 32
M  V30 26 1 31 33
M  V30 27 1 31 34
M  V30 28 1 31 35
M  V30 29 1 36 37
M  V30 30 1 36 38
M  V30 31 1 36 39
M  V30 32 1 36 40
M  V30 33 1 41 42
M  V30 34 1 41 43
M  V30 35 1 41 44
M  V30 36 1 41 45
M  V30 37 1 46 47
M  V30 38 1 47 48
M  V30 39 1 49 50
M  V30 40 1 50 51
M  V30 41 1 52 53
M  V30 42 1 53 54
M  V30 43 1 55 56
M  V30 44 1 56 57
M  V30 45 1 58 59
M  V30 46 1 59 60
M  V30 47 1 61 62
M  V30 48 1 62 63
M  V30 49 1 64 65
M  V30 50 1 65 66
M  V30 51 1 67 68
M  V30 52 1 68 69
M  V30 53 1 70 71
M  V30 54 1 71 72
M  V30 55 1 73 74
M  V30 56 1 74 75
M  V30 57 1 76 77
M  V30 58 1 77 78
M  V30 59 1 79 80
M  V30 60 1 80 81
M  V30 61 1 82 83
M  V30 62 1 83 84
M  V30 63 1 85 86
M  V30 64 1 86 87
M  V30 65 1 88 89
M  V30 66 1 89 90
M  V30 67 1 91 92
M  V30 68 1 92 93
M  V30 69 1 94 95
M  V30 70 1 95 96
M  V30 71 1 97 98
M  V30 72 1 98 99
M  V30 73 1 2 73
M  V30 74 1 3 97
M  V30 75 1 4 61
M  V30 76 1 5 64
M  V30 77 1 7 46
M  V30 78 1 8 85
M  V30 79 1 9 58
M  V30 80 1 10 52
M  V30 81 1 12 88
M  V30 82 1 13 70
M  V30 83 1 14 91
M  V30 84 1 15 82
M  V30 85 1 17 93
M  V30 86 1 18 79
M  V30 87 1 19 49
M  V30 88 1 20 55
M  V30 89 1 22 48
M  V30 90 1 23 72
M  V30 91 1 24 51
M  V30 92 1 25 76
M  V30 93 1 27 81
M  V30 94 1 28 67
M  V30 95 1 29 63
M  V30 96 1 30 57
M  V30 97 1 32 75
M  V30 98 1 33 69
M  V30 99 1 34 84
M  V30 100 1 35 90
M  V30 101 1 37 78
M  V30 102 1 38 94
M  V30 103 1 39 60
M  V30 104 1 40 66
M  V30 105 1 42 87
M  V30 106 1 43 99
M  V30 107 1 44 96
M  V30 108 1 45 54
M  V30 END BOND
M  V30 END CTAB
M  END

$$$$
