
     RDKit          3D

  0  0  0  0  0  0  0  0  0  0999 V3000
M  V30 BEGIN CTAB
M  V30 COUNTS 99 108 0 0 0
M  V30 BEGIN ATOM
M  V30 1 Pd -0.3019 -2.5337 -3.1124 0
M  V30 2 Pb -1.0814 -2.8119 -2.5435 0
M  V30 3 Pb 0.0797 -3.4566 -2.9918 0
M  V30 4 Pb -0.7403 -1.6560 -3.3025 0
M  V30 5 Pb 0.4327 -2.2543 -3.7372 0
M  V30 6 Pd 0.1118 3.3548 -3.4044 0
M  V30 7 Pb 0.6943 2.9599 -2.6944 0
M  V30 8 Pb 0.4522 4.2559 -3.1496 0
M  V30 9 Pb -0.3479 2.4841 -3.5846 0
M  V30 10 Pb -0.5810 3.8020 -3.9623 0
M  V30 11 Pd -0.7777 4.8494 1.0791 0
M  V30 12 Pb -1.0846 4.2662 1.8315 0
M  V30 13 Pb -0.4213 5.4432 0.3580 0
M  V30 14 Pb -1.5664 5.4515 1.2230 0
M  V30 15 Pb -0.0369 4.2054 0.8670 0
M  V30 16 Pd -4.4691 -0.8746 0.6235 0
M  V30 17 Pb -4.8631 -0.1494 1.1908 0
M  V30 18 Pb -4.0279 -1.2541 1.4354 0
M  V30 19 Pb -4.9528 -0.4921 -0.1650 0
M  V30 20 Pb -4.0876 -1.6222 0.0723 0
M  V30 21 Pd 1.9430 1.3697 3.5943 0
M  V30 22 Pb 2.8634 1.1040 3.3045 0
M  V30 23 Pb 2.0333 0.8866 4.4666 0
M  V30 24 Pb 1.0085 1.6410 3.8202 0
M  V30 25 Pb 1.8523 1.8148 2.7040 0
M  V30 26 Pd -5.6927 4.0803 -0.3916 0
M  V30 27 Pb -5.9791 3.2540 -0.8781 0
M  V30 28 Pb -5.8354 3.6027 0.4732 0
M  V30 29 Pb -5.3136 4.8704 0.0952 0
M  V30 30 Pb -5.4898 4.5033 -1.2720 0
M  V30 31 Pd 3.2293 -6.3055 -0.2952 0
M  V30 32 Pb 2.5713 -6.3658 0.4762 0
M  V30 33 Pb 3.8954 -6.1390 -1.0168 0
M  V30 34 Pb 3.9759 -6.3938 0.3546 0
M  V30 35 Pb 2.4923 -6.2005 -0.9683 0
M  V30 36 Pd 4.5273 -0.1268 -2.9088 0
M  V30 37 Pb 5.0518 -0.9458 -3.1242 0
M  V30 38 Pb 3.9467 0.6354 -2.6292 0
M  V30 39 Pb 3.9539 -0.3265 -3.7014 0
M  V30 40 Pb 5.0071 -0.0163 -2.0377 0
M  V30 41 Pd 1.5714 -3.7525 4.7598 0
M  V30 42 Pb 0.6190 -3.4723 4.6525 0
M  V30 43 Pb 2.5132 -4.0457 4.8809 0
M  V30 44 Pb 1.4255 -4.5174 4.1043 0
M  V30 45 Pb 1.7335 -2.9677 5.3590 0
M  V30 46 Ag -3.7249 -1.5339 2.0605 0
M  V30 47 Fe -1.8928 -2.3979 3.2977 0
M  V30 48 Ag -0.0980 -3.2685 4.5840 0
M  V30 49 Ag -1.1896 4.1460 -4.2180 0
M  V30 50 Fe -3.3319 4.5951 -3.3147 0
M  V30 51 Ag -5.2553 4.7398 -1.9404 0
M  V30 52 Ag 4.3852 -5.8965 -1.5234 0
M  V30 53 Fe 5.0489 -3.8554 -2.5239 0
M  V30 54 Ag 5.3514 -1.6184 -3.2394 0
M  V30 55 Ag 4.4542 -6.3767 0.9192 0
M  V30 56 Fe 4.2816 -5.4581 3.0803 0
M  V30 57 Ag 3.1956 -4.3283 4.8376 0
M  V30 58 Ag 1.8290 2.0962 2.0100 0
M  V30 59 Fe 2.5955 1.7620 -0.2109 0
M  V30 60 Ag 3.5156 1.1588 -2.3135 0
M  V30 61 Ag 3.5227 0.9364 2.9864 0
M  V30 62 Fe 4.5385 0.4777 0.8877 0
M  V30 63 Ag 5.2626 0.0507 -1.3349 0
M  V30 64 Ba 2.0823 -6.4133 1.0636 0
M  V30 65 Ga 1.7344 -5.7066 2.3348 0
M  V30 66 Ba 1.2846 -5.1003 3.6256 0
M  V30 67 Ba -5.1683 0.3902 1.6157 0
M  V30 68 Ga -5.5486 1.7964 1.3852 0
M  V30 69 Ba -5.9087 3.1974 1.0979 0
M  V30 70 Ba 0.2798 -4.1835 -2.9381 0
M  V30 71 Ga 1.1521 -5.1100 -2.1809 0
M  V30 72 Ba 1.9688 -6.1456 -1.5074 0
M  V30 73 Ba -1.2781 3.8341 2.4135 0
M  V30 74 Ga -0.5249 2.8401 3.1998 0
M  V30 75 Ba 0.3015 1.8621 3.9307 0
M  V30 76 Ba 0.9307 -2.0022 -4.2447 0
M  V30 77 Ga 2.2179 -1.2766 -4.2525 0
M  V30 78 Ba 3.5067 -0.5539 -4.2575 0
M  V30 79 Ba -5.3487 -0.1798 -0.7217 0
M  V30 80 Ga -5.7582 1.2100 -1.0059 0
M  V30 81 Ba -6.1386 2.6170 -1.2421 0
M  V30 82 Ba 0.6184 4.9344 -2.8871 0
M  V30 83 Ga 0.2920 5.4652 -1.5539 0
M  V30 84 Ba -0.1017 5.8462 -0.1877 0
M  V30 85 Ba 2.0891 0.5065 5.1121 0
M  V30 86 Ga 1.9789 -0.9224 5.4668 0
M  V30 87 Ba 1.8618 -2.3602 5.7808 0
M  V30 88 Ba 1.0689 2.7437 -2.0811 0
M  V30 89 Ga 0.8373 3.1886 -0.6898 0
M  V30 90 Ba 0.4959 3.7182 0.6486 0
M  V30 91 Ba -1.6762 -3.0657 -2.1554 0
M  V30 92 Ga -2.7250 -2.5813 -1.2301 0
M  V30 93 Ba -3.8206 -2.2192 -0.3031 0
M  V30 94 Ba -1.0976 -1.0295 -3.5060 0
M  V30 95 Ga -0.8714 0.4269 -3.5781 0
M  V30 96 Ba -0.7947 1.8940 -3.7139 0
M  V30 97 Ba -2.1844 5.8733 1.3061 0
M  V30 98 Ga -3.5925 5.6824 0.8955 0
M  V30 99 Ba -4.9857 5.4403 0.4616 0
M  V30 END ATOM
M  V30 BEGIN BOND
M  V30 1 1 1 2
M  V30 2 1 1 3
M  V30 3 1 1 4
M  V30 4 1 1 5
M  V30 5 1 6 7
M  V30 6 1 6 8
M  V30 7 1 6 9
M  V30 8 1 6 10
M  V30 9 1 11 12
M  V30 10 1 11 13
M  V30 11 1 11 14
M  V30 12 1 11 15
M  V30 13 1 16 17
M  V30 14 1 16 18
M  V30 15 1 16 19
M  V30 16 1 16 20
M  V30 17 1 21 22
M  V30 18 1 21 23
M  V30 19 1 21 24
M  V30 20 1 21 25
M  V30 21 1 26 27
M  V30 22 1 26 28
M  V30 23 1 26 29
M  V30 24 1 26 30
M  V30 25 1 31 32
M  V30 26 1 31 33
M  V30 27 1 31 34
M  V30 28 1 31 35
M  V30 29 1 36 37
M  V30 30 1 36 38
M  V30 31 1 36 39
M  V30 32 1 36 40
M  V30 33 1 41 42
M  V30 34 1 41 43
M  V30 35 1 41 44
M  V30 36 1 41 45
M  V30 37 1 46 47
M  V30 38 1 47 48
M  V30 39 1 49 50
M  V30 40 1 50 51
M  V30 41 1 52 53
M  V30 42 1 53 54
M  V30 43 1 55 56
M  V30 44 1 56 57
M  V30 45 1 58 59
M  V30 46 1 59 60
M  V30 47 1 61 62
M  V30 48 1 62 63
M  V30 49 1 64 65
M  V30 50 1 65 66
M  V30 51 1 67 68
M  V30 52 1 68 69
M  V30 53 1 70 71
M  V30 54 1 71 72
M  V30 55 1 73 74
M  V30 56 1 74 75
M  V30 57 1 76 77
M  V30 58 1 77 78
M  V30 59 1 79 80
M  V30 60 1 80 81
M  V30 61 1 82 83
M  V30 62 1 83 84
M  V30 63 1 85 86
M  V30 64 1 86 87
M  V30 65 1 88 89
M  V30 66 1 89 90
M  V30 67 1 91 92
M  V30 68 1 92 93
M  V30 69 1 94 95
M  V30 70 1 95 96
M  V30 71 1 97 98
M  V30 72 1 98 99
M  V30 73 1 2 91
M  V30 74 1 3 70
M  V30 75 1 4 94
M  V30 76 1 5 76
M  V30 77 1 7 88
M  V30 78 1 8 82
M  V30 79 1 9 96
M  V30 80 1 10 49
M  V30 81 1 12 73
M  V30 82 1 13 84
M  V30 83 1 14 97
M  V30 84 1 15 90
M  V30 85 1 17 67
M  V30 86 1 18 46
M  V30 87 1 19 79
M  V30 88 1 20 93
M  V30 89 1 22 61
M  V30 90 1 23 85
M  V30 91 1 24 75
M  V30 92 1 25 58
M  V30 93 1 27 81
M  V30 94 1 28 69
M  V30 95 1 29 99
M  V30 96 1 30 51
M  V30 97 1 32 64
M  V30 98 1 33 52
M  V30 99 1 34 55
M  V30 100 1 35 72
M  V30 101 1 37 54
M  V30 102 1 38 60
M  V30 103 1 39 78
M  V30 104 1 40 63
M  V30 105 1 42 48
M  V30 106 1 43 57
M  V30 107 1 44 66
M  V30 108 1 45 87
M  V30 END BOND
M  V30 END CTAB
M  END

$$$$
