
     RDKit          3D

  0  0  0  0  0  0  0  0  0  0999 V3000
M  V30 BEGIN CTAB
M  V30 COUNTS 99 108 0 0 0
M  V30 BEGIN ATOM
M  V30 1 Pd 1.1307 -3.4446 -0.5551 0
M  V30 2 Pb 0.8490 -4.2368 -0.0113 0
M  V30 3 Pb 0.8552 -2.8909 0.2309 0
M  V30 4 Pb 1.3891 -4.0158 -1.3381 0
M  V30 5 Pb 1.4313 -2.6440 -1.0781 0
M  V30 6 Pd 5.1013 3.0749 4.5486 0
M  V30 7 Pb 4.5203 3.7646 4.1123 0
M  V30 8 Pb 5.6728 2.4106 5.0322 0
M  V30 9 Pb 5.7054 3.0163 3.7488 0
M  V30 10 Pb 4.4800 3.0656 5.3353 0
M  V30 11 Pd -6.0200 1.8242 0.9735 0
M  V30 12 Pb -6.4407 0.9410 0.7768 0
M  V30 13 Pb -5.5665 2.6988 1.1529 0
M  V30 14 Pb -6.4387 2.2179 0.1557 0
M  V30 15 Pb -5.5327 1.3610 1.7177 0
M  V30 16 Pd -3.9359 2.0471 -5.9355 0
M  V30 17 Pb -4.7616 2.3674 -5.4723 0
M  V30 18 Pb -3.0831 1.6675 -6.2988 0
M  V30 19 Pb -3.5032 2.9246 -5.7330 0
M  V30 20 Pb -4.3401 1.1486 -6.0965 0
M  V30 21 Pd 0.0289 6.0839 -0.7108 0
M  V30 22 Pb 0.5378 6.1219 0.1500 0
M  V30 23 Pb -0.8395 6.1218 -0.2154 0
M  V30 24 Pb -0.4541 6.0528 -1.5860 0
M  V30 25 Pb 0.8943 5.9479 -1.1868 0
M  V30 26 Pd -1.1487 -4.5138 -5.2832 0
M  V30 27 Pb -0.7752 -3.7004 -5.7326 0
M  V30 28 Pb -1.5719 -5.2646 -4.7803 0
M  V30 29 Pb -0.2585 -4.7758 -4.9069 0
M  V30 30 Pb -2.0458 -4.2069 -5.5963 0
M  V30 31 Pd -3.5644 -4.9138 1.4101 0
M  V30 32 Pb -2.6418 -5.2434 1.6128 0
M  V30 33 Pb -3.6007 -5.5906 0.6784 0
M  V30 34 Pb -3.5114 -4.1581 2.0676 0
M  V30 35 Pb -4.4575 -4.5517 1.1524 0
M  V30 36 Pd 4.9782 0.7477 -0.4886 0
M  V30 37 Pb 4.8524 1.6018 -0.9896 0
M  V30 38 Pb 5.0738 -0.0966 0.0364 0
M  V30 39 Pb 5.6472 1.2140 0.0975 0
M  V30 40 Pb 4.2686 0.3248 -1.0573 0
M  V30 41 Pd 3.3629 -0.9784 6.1051 0
M  V30 42 Pb 4.2890 -0.8023 6.4268 0
M  V30 43 Pb 2.4794 -1.0629 5.6494 0
M  V30 44 Pb 3.7274 -1.6395 5.4555 0
M  V30 45 Pb 3.0498 -0.1908 6.6324 0
M  V30 46 Ag 4.0649 4.3002 3.8455 0
M  V30 47 Fe 2.5087 5.1946 2.2879 0
M  V30 48 Ag 0.9497 6.1607 0.7765 0
M  V30 49 Ag 1.5454 5.7629 -1.5022 0
M  V30 50 Fe 3.2097 4.0735 -1.5135 0
M  V30 51 Ag 4.7183 2.2526 -1.3328 0
M  V30 52 Ag -3.1896 3.5772 -5.5407 0
M  V30 53 Fe -1.9913 4.8226 -3.9123 0
M  V30 54 Ag -0.7926 6.0287 -2.2549 0
M  V30 55 Ag -2.4663 1.2937 -6.5115 0
M  V30 56 Fe -1.4064 -0.8293 -6.3628 0
M  V30 57 Ag -0.5959 -3.0421 -6.0484 0
M  V30 58 Ag -5.1634 0.9210 2.2053 0
M  V30 59 Fe -4.2954 -1.2776 2.4795 0
M  V30 60 Ag -3.5312 -3.5312 2.4853 0
M  V30 61 Ag -6.6876 0.2451 0.6594 0
M  V30 62 Fe -6.0331 -2.0320 0.7630 0
M  V30 63 Ag -5.0891 -4.1981 0.9663 0
M  V30 64 Ag -4.5545 0.4398 -6.2029 0
M  V30 65 Fe -3.7675 -1.7936 -6.0558 0
M  V30 66 Ag -2.6929 -3.8938 -5.8039 0
M  V30 67 Ag -6.6869 2.4716 -0.5044 0
M  V30 68 Fe -6.1382 2.6012 -2.8108 0
M  V30 69 Ag -5.3377 2.5864 -5.0460 0
M  V30 70 Ag 5.1070 -0.7068 0.4686 0
M  V30 71 Fe 4.6254 -1.5473 2.6328 0
M  V30 72 Ag 4.0146 -2.0107 4.8762 0
M  V30 73 Ag 0.6335 -2.5460 0.8594 0
M  V30 74 Fe 1.1689 -1.7962 3.0476 0
M  V30 75 Ag 1.8797 -1.1030 5.2041 0
M  V30 76 Ag -1.9093 -5.7680 -4.3426 0
M  V30 77 Fe -2.7900 -6.0677 -2.1613 0
M  V30 78 Ag -3.5657 -6.0356 0.0793 0
M  V30 79 Ag -5.2222 3.3599 1.2484 0
M  V30 80 Fe -3.3758 4.7658 0.7376 0
M  V30 81 Ag -1.4869 6.0883 0.1632 0
M  V30 82 Ba 0.6350 -4.7875 0.4533 0
M  V30 83 Ga -0.6480 -5.1631 1.0813 0
M  V30 84 Ba -1.9459 -5.5141 1.6925 0
M  V30 85 Ba 4.0113 2.9940 5.9196 0
M  V30 86 Ga 3.4041 1.7795 6.4979 0
M  V30 87 Ba 2.8890 0.4705 6.9437 0
M  V30 88 Ba 6.0560 1.9085 5.4380 0
M  V30 89 Ga 5.6099 0.6432 6.0443 0
M  V30 90 Ba 4.9890 -0.5854 6.5656 0
M  V30 91 Ba 6.1741 2.9329 3.1640 0
M  V30 92 Ga 6.1367 2.2621 1.8444 0
M  V30 93 Ba 6.1376 1.6033 0.5183 0
M  V30 94 Ba 1.5910 -4.4212 -1.9397 0
M  V30 95 Ga 0.9965 -4.7027 -3.2636 0
M  V30 96 Ba 0.3897 -4.9761 -4.5837 0
M  V30 97 Ba 1.6636 -2.0700 -1.5054 0
M  V30 98 Ga 2.7039 -1.0204 -1.4629 0
M  V30 99 Ba 3.7176 0.0553 -1.4939 0
M  V30 END ATOM
M  V30 BEGIN BOND
M  V30 1 1 1 2
M  V30 2 1 1 3
M  V30 3 1 1 4
M  V30 4 1 1 5
M  V30 5 1 6 7
M  V30 6 1 6 8
M  V30 7 1 6 9
M  V30 8 1 6 10
M  V30 9 1 11 12
M  V30 10 1 11 13
M  V30 11 1 11 14
M  V30 12 1 11 15
M  V30 13 1 16 17
M  V30 14 1 16 18
M  V30 15 1 16 19
M  V30 16 1 16 20
M  V30 17 1 21 22
M  V30 18 1 21 23
M  V30 19 1 21 24
M  V30 20 1 21 25
M  V30 21 1 26 27
M  V30 22 1 26 28
M  V30 23 1 26 29
M  V30 24 1 26 30
M  V30 25 1 31 32
M  V30 26 1 31 33
M  V30 27 1 31 34
M  V30 28 1 31 35
M  V30 29 1 36 37
M  V30 30 1 36 38
M  V30 31 1 36 39
M  V30 32 1 36 40
M  V30 33 1 41 42
M  V30 34 1 41 43
M  V30 35 1 41 44
M  V30 36 1 41 45
M  V30 37 1 46 47
M  V30 38 1 47 48
M  V30 39 1 49 50
M  V30 40 1 50 51
M  V30 41 1 52 53
M  V30 42 1 53 54
M  V30 43 1 55 56
M  V30 44 1 56 57
M  V30 45 1 58 59
M  V30 46 1 59 60
M  V30 47 1 61 62
M  V30 48 1 62 63
M  V30 49 1 64 65
M  V30 50 1 65 66
M  V30 51 1 67 68
M  V30 52 1 68 69
M  V30 53 1 70 71
M  V30 54 1 71 72
M  V30 55 1 73 74
M  V30 56 1 74 75
M  V30 57 1 76 77
M  V30 58 1 77 78
M  V30 59 1 79 80
M  V30 60 1 80 81
M  V30 61 1 82 83
M  V30 62 1 83 84
M  V30 63 1 85 86
M  V30 64 1 86 87
M  V30 65 1 88 89
M  V30 66 1 89 90
M  V30 67 1 91 92
M  V30 68 1 92 93
M  V30 69 1 94 95
M  V30 70 1 95 96
M  V30 71 1 97 98
M  V30 72 1 98 99
M  V30 73 1 2 82
M  V30 74 1 3 73
M  V30 75 1 4 94
M  V30 76 1 5 97
M  V30 77 1 7 46
M  V30 78 1 8 88
M  V30 79 1 9 91
M  V30 80 1 10 85
M  V30 81 1 12 61
M  V30 82 1 13 79
M  V30 83 1 14 67
M  V30 84 1 15 58
M  V30 85 1 17 69
M  V30 86 1 18 55
M  V30 87 1 19 52
M  V30 88 1 20 64
M  V30 89 1 22 48
M  V30 90 1 23 81
M  V30 91 1 24 54
M  V30 92 1 25 49
M  V30 93 1 27 57
M  V30 94 1 28 76
M  V30 95 1 29 96
M  V30 96 1 30 66
M  V30 97 1 32 84
M  V30 98 1 33 78
M  V30 99 1 34 60
M  V30 100 1 35 63
M  V30 101 1 37 51
M  V30 102 1 38 70
M  V30 103 1 39 93
M  V30 104 1 40 99
M  V30 105 1 42 90
M  V30 106 1 43 75
M  V30 107 1 44 72
M  V30 108 1 45 87
M  V30 END BOND
M  V30 END CTAB
M  END

$$$$
