
     RDKit          3D

  0  0  0  0  0  0  0  0  0  0999 V3000
M  V30 BEGIN CTAB
M  V30 COUNTS 99 108 0 0 0
M  V30 BEGIN ATOM
M  V30 1 Pd 3.3866 -4.2847 0.9716 0
M  V30 2 Pb 2.6738 -4.5974 1.6221 0
M  V30 3 Pb 3.8809 -3.8785 1.7330 0
M  V30 4 Pb 2.8834 -4.7311 0.2279 0
M  V30 5 Pb 4.0593 -3.8803 0.3517 0
M  V30 6 Pd -0.5553 -2.4467 4.8832 0
M  V30 7 Pb -1.4224 -2.5828 4.4034 0
M  V30 8 Pb 0.3241 -2.2891 5.3199 0
M  V30 9 Pb -0.8966 -1.5995 5.2883 0
M  V30 10 Pb -0.1661 -3.2646 4.4252 0
M  V30 11 Pd -3.5102 3.1132 1.5248 0
M  V30 12 Pb -3.2313 3.7237 0.7659 0
M  V30 13 Pb -2.6857 2.5627 1.3930 0
M  V30 14 Pb -4.3350 3.6612 1.6555 0
M  V30 15 Pb -3.5607 2.8183 2.4791 0
M  V30 16 Pd 1.7012 -0.5208 -6.0316 0
M  V30 17 Pb 2.1804 -1.3865 -6.2219 0
M  V30 18 Pb 1.7248 -0.7475 -5.0567 0
M  V30 19 Pb 1.5343 -0.4105 -7.0098 0
M  V30 20 Pb 1.0430 0.2026 -5.8393 0
M  V30 21 Pd 1.1827 2.5081 4.1843 0
M  V30 22 Pb 2.0929 2.4590 3.7668 0
M  V30 23 Pb 0.7812 2.1102 3.3595 0
M  V30 24 Pb 1.5251 3.2767 3.6431 0
M  V30 25 Pb 0.4543 2.0988 4.7375 0
M  V30 26 Pd 3.0939 0.4102 -0.3356 0
M  V30 27 Pb 3.9078 -0.1373 -0.5329 0
M  V30 28 Pb 2.2419 0.8887 -0.1222 0
M  V30 29 Pb 2.6152 -0.1354 -1.0222 0
M  V30 30 Pb 3.5569 0.9226 0.3876 0
M  V30 31 Pd -0.8765 7.2512 2.5333 0
M  V30 32 Pb -1.1219 7.0381 1.5738 0
M  V30 33 Pb -1.7491 7.7242 2.6459 0
M  V30 34 Pb -0.8449 7.0852 3.5191 0
M  V30 35 Pb -0.0018 6.7797 2.4207 0
M  V30 36 Pd -0.4434 -5.2446 -5.9252 0
M  V30 37 Pb 0.5112 -5.0211 -6.1618 0
M  V30 38 Pb -0.7109 -4.9456 -6.8403 0
M  V30 39 Pb -0.1411 -5.5411 -5.0176 0
M  V30 40 Pb -1.3994 -5.2683 -5.6291 0
M  V30 41 Pd -3.9327 -0.7224 -1.5483 0
M  V30 42 Pb -4.2337 -1.4869 -2.1230 0
M  V30 43 Pb -3.6500 -0.1857 -2.3423 0
M  V30 44 Pb -4.1385 -1.2429 -0.7202 0
M  V30 45 Pb -3.4954 -0.0164 -0.9945 0
M  V30 46 Ag 1.2644 -0.5481 -7.6873 0
M  V30 47 Fe 0.0700 -2.5162 -8.1912 0
M  V30 48 Ag -0.7851 -4.6012 -7.4967 0
M  V30 49 Ag -4.8225 4.2057 1.7863 0
M  V30 50 Fe -4.2551 6.4224 2.3247 0
M  V30 51 Ag -2.4678 7.9053 2.6881 0
M  V30 52 Ag -2.0958 -5.1622 -5.3669 0
M  V30 53 Fe -3.3586 -3.6993 -3.9813 0
M  V30 54 Ag -4.3700 -2.0912 -2.5508 0
M  V30 55 Ag 4.1212 -3.5750 2.3649 0
M  V30 56 Fe 2.9611 -2.7477 4.2409 0
M  V30 57 Ag 1.0396 -2.2130 5.4943 0
M  V30 58 Ag 2.4773 -5.1111 -0.2795 0
M  V30 59 Fe 1.3063 -5.3864 -2.3301 0
M  V30 60 Ag 0.1103 -5.7725 -4.3483 0
M  V30 61 Ag 1.5738 1.1901 0.0375 0
M  V30 62 Fe -0.7746 0.9553 -0.2185 0
M  V30 63 Ag -3.0620 0.4767 -0.6357 0
M  V30 64 Ag 0.4479 0.6238 -5.6768 0
M  V30 65 Fe -1.5037 0.5717 -4.3280 0
M  V30 66 Ag -3.3528 0.2488 -2.8759 0
M  V30 67 Ag -2.0549 -2.6685 4.0092 0
M  V30 68 Fe -3.2155 -2.1852 1.9945 0
M  V30 69 Ag -4.2314 -1.6099 -0.0735 0
M  V30 70 Ag -3.4258 2.8791 3.2140 0
M  V30 71 Fe -2.2146 4.6660 4.2023 0
M  V30 72 Ag -0.9931 6.7010 4.1456 0
M  V30 73 Ba 4.5561 -3.4956 -0.0587 0
M  V30 74 Ga 4.5684 -2.0627 -0.4129 0
M  V30 75 Ba 4.4590 -0.6188 -0.6998 0
M  V30 76 Ba 1.7794 3.8534 3.2360 0
M  V30 77 Ga 1.2170 5.1408 2.7867 0
M  V30 78 Ba 0.6556 6.4284 2.3368 0
M  V30 79 Ba -2.0689 2.1476 1.2938 0
M  V30 80 Ga -0.7944 1.9809 2.0171 0
M  V30 81 Ba 0.4804 1.8136 2.7398 0
M  V30 82 Ba 2.7760 2.4298 3.4524 0
M  V30 83 Ga 3.3342 1.8698 2.2054 0
M  V30 84 Ba 3.8717 1.3020 0.9528 0
M  V30 85 Ba 2.1346 -4.8394 2.1067 0
M  V30 86 Ga 1.1455 -4.3038 3.0887 0
M  V30 87 Ba 0.1203 -3.8908 4.0926 0
M  V30 88 Ba 2.4617 -2.0779 -6.3590 0
M  V30 89 Ga 1.8569 -3.4381 -6.3444 0
M  V30 90 Ba 1.2145 -4.7808 -6.3186 0
M  V30 91 Ba -2.9552 4.2707 0.3038 0
M  V30 92 Ga -2.1651 5.5181 0.5766 0
M  V30 93 Ba -1.3761 6.7519 0.9085 0
M  V30 94 Ba 1.6543 -1.0030 -4.3534 0
M  V30 95 Ga 2.0011 -0.7237 -2.9470 0
M  V30 96 Ba 2.2611 -0.5898 -1.5008 0
M  V30 97 Ba -1.1151 -0.9406 5.5705 0
M  V30 98 Ga -0.6178 0.4348 5.3716 0
M  V30 99 Ba -0.0969 1.7981 5.1514 0
M  V30 END ATOM
M  V30 BEGIN BOND
M  V30 1 1 1 2
M  V30 2 1 1 3
M  V30 3 1 1 4
M  V30 4 1 1 5
M  V30 5 1 6 7
M  V30 6 1 6 8
M  V30 7 1 6 9
M  V30 8 1 6 10
M  V30 9 1 11 12
M  V30 10 1 11 13
M  V30 11 1 11 14
M  V30 12 1 11 15
M  V30 13 1 16 17
M  V30 14 1 16 18
M  V30 15 1 16 19
M  V30 16 1 16 20
M  V30 17 1 21 22
M  V30 18 1 21 23
M  V30 19 1 21 24
M  V30 20 1 21 25
M  V30 21 1 26 27
M  V30 22 1 26 28
M  V30 23 1 26 29
M  V30 24 1 26 30
M  V30 25 1 31 32
M  V30 26 1 31 33
M  V30 27 1 31 34
M  V30 28 1 31 35
M  V30 29 1 36 37
M  V30 30 1 36 38
M  V30 31 1 36 39
M  V30 32 1 36 40
M  V30 33 1 41 42
M  V30 34 1 41 43
M  V30 35 1 41 44
M  V30 36 1 41 45
M  V30 37 1 46 47
M  V30 38 1 47 48
M  V30 39 1 49 50
M  V30 40 1 50 51
M  V30 41 1 52 53
M  V30 42 1 53 54
M  V30 43 1 55 56
M  V30 44 1 56 57
M  V30 45 1 58 59
M  V30 46 1 59 60
M  V30 47 1 61 62
M  V30 48 1 62 63
M  V30 49 1 64 65
M  V30 50 1 65 66
M  V30 51 1 67 68
M  V30 52 1 68 69
M  V30 53 1 70 71
M  V30 54 1 71 72
M  V30 55 1 73 74
M  V30 56 1 74 75
M  V30 57 1 76 77
M  V30 58 1 77 78
M  V30 59 1 79 80
M  V30 60 1 80 81
M  V30 61 1 82 83
M  V30 62 1 83 84
M  V30 63 1 85 86
M  V30 64 1 86 87
M  V30 65 1 88 89
M  V30 66 1 89 90
M  V30 67 1 91 92
M  V30 68 1 92 93
M  V30 69 1 94 95
M  V30 70 1 95 96
M  V30 71 1 97 98
M  V30 72 1 98 99
M  V30 73 1 2 85
M  V30 74 1 3 55
M  V30 75 1 4 58
M  V30 76 1 5 73
M  V30 77 1 7 67
M  V30 78 1 8 57
M  V30 79 1 9 97
M  V30 80 1 10 87
M  V30 81 1 12 91
M  V30 82 1 13 79
M  V30 83 1 14 49
M  V30 84 1 15 70
M  V30 85 1 17 88
M  V30 86 1 18 94
M  V30 87 1 19 46
M  V30 88 1 20 64
M  V30 89 1 22 82
M  V30 90 1 23 81
M  V30 91 1 24 76
M  V30 92 1 25 99
M  V30 93 1 27 75
M  V30 94 1 28 61
M  V30 95 1 29 96
M  V30 96 1 30 84
M  V30 97 1 32 93
M  V30 98 1 33 51
M  V30 99 1 34 72
M  V30 100 1 35 78
M  V30 101 1 37 90
M  V30 102 1 38 48
M  V30 103 1 39 60
M  V30 104 1 40 52
M  V30 105 1 42 54
M  V30 106 1 43 66
M  V30 107 1 44 69
M  V30 108 1 45 63
M  V30 END BOND
M  V30 END CTAB
M  END

$$$$
