
     RDKit          3D

  0  0  0  0  0  0  0  0  0  0999 V3000
M  V30 BEGIN CTAB
M  V30 COUNTS 99 108 0 0 0
M  V30 BEGIN ATOM
M  V30 1 Pd -2.1463 3.3997 -2.4455 0
M  V30 2 Pb -2.0956 2.7746 -3.2210 0
M  V30 3 Pb -2.2377 4.0886 -1.7273 0
M  V30 4 Pb -3.0184 2.9849 -2.1725 0
M  V30 5 Pb -1.2837 3.8213 -2.7346 0
M  V30 6 Pd 4.2854 3.2307 4.3164 0
M  V30 7 Pb 3.7025 2.4411 4.1221 0
M  V30 8 Pb 4.7818 4.0802 4.4700 0
M  V30 9 Pb 4.8617 3.0940 3.5121 0
M  V30 10 Pb 3.6145 3.5448 4.9874 0
M  V30 11 Pd 0.9165 -7.5155 -2.2187 0
M  V30 12 Pb 0.0867 -7.4223 -2.8030 0
M  V30 13 Pb 1.7129 -7.4509 -1.6185 0
M  V30 14 Pb 0.3554 -7.7748 -1.4341 0
M  V30 15 Pb 1.4867 -7.2612 -2.9908 0
M  V30 16 Pd -3.4657 -4.6449 2.9898 0
M  V30 17 Pb -3.1209 -5.5633 2.8136 0
M  V30 18 Pb -4.1667 -4.8061 2.3028 0
M  V30 19 Pb -2.7105 -4.4988 3.6275 0
M  V30 20 Pb -3.7659 -3.6901 3.0578 0
M  V30 21 Pd 3.3154 -2.2996 2.3986 0
M  V30 22 Pb 2.9684 -1.4345 2.7589 0
M  V30 23 Pb 3.6073 -3.1840 2.0307 0
M  V30 24 Pb 2.8666 -2.7527 3.1657 0
M  V30 25 Pb 3.6282 -1.8265 1.5767 0
M  V30 26 Pd -5.0789 -1.5118 -0.8956 0
M  V30 27 Pb -5.2427 -2.4677 -0.6653 0
M  V30 28 Pb -5.2209 -1.7677 -1.8542 0
M  V30 29 Pb -5.0347 -0.5307 -1.1130 0
M  V30 30 Pb -4.9407 -1.3173 0.0806 0
M  V30 31 Pd -2.2746 -3.6779 -5.3414 0
M  V30 32 Pb -2.2536 -2.7207 -5.6145 0
M  V30 33 Pb -3.1937 -3.5139 -4.9733 0
M  V30 34 Pb -1.3839 -3.8035 -5.7614 0
M  V30 35 Pb -2.2327 -4.6393 -5.0039 0
M  V30 36 Pd 3.3269 4.5337 -0.8935 0
M  V30 37 Pb 3.4182 3.5508 -1.0506 0
M  V30 38 Pb 3.2725 5.5343 -0.7806 0
M  V30 39 Pb 4.0809 4.3956 -0.2414 0
M  V30 40 Pb 2.6196 4.6203 -1.6003 0
M  V30 41 Pd 1.1881 8.4124 2.3117 0
M  V30 42 Pb 2.0825 8.5975 2.7090 0
M  V30 43 Pb 0.3138 8.1282 1.9228 0
M  V30 44 Pb 1.5930 8.5094 1.4029 0
M  V30 45 Pb 0.8900 8.1142 3.2182 0
M  V30 46 Ag -2.0831 2.3346 -3.8254 0
M  V30 47 Fe -2.1471 0.1878 -4.8300 0
M  V30 48 Ag -2.2145 -1.9910 -5.7627 0
M  V30 49 Ag 3.7702 -1.4433 0.9489 0
M  V30 50 Fe 3.6890 0.6659 -0.1385 0
M  V30 51 Ag 3.5666 2.8201 -1.1296 0
M  V30 52 Ag -2.0942 -4.4228 4.0464 0
M  V30 53 Fe 0.1875 -3.7720 4.0183 0
M  V30 54 Ag 2.4228 -3.0469 3.6903 0
M  V30 55 Ag 1.7972 -6.9805 -3.5995 0
M  V30 56 Fe 0.9430 -5.4252 -5.1434 0
M  V30 57 Ag -0.7027 -3.9745 -5.9928 0
M  V30 58 Ag 3.0798 3.9193 5.3549 0
M  V30 59 Fe 1.7692 5.8415 4.8832 0
M  V30 60 Ag 0.7957 7.7541 3.8686 0
M  V30 61 Ag 5.0293 4.7805 4.5149 0
M  V30 62 Fe 4.1649 6.8882 3.8792 0
M  V30 63 Ag 2.7549 8.5854 3.0279 0
M  V30 64 Ag -0.0517 -7.9500 -0.8306 0
M  V30 65 Fe -1.4526 -7.1852 0.9243 0
M  V30 66 Ag -2.8318 -6.2152 2.5927 0
M  V30 67 Ag -2.3156 4.6427 -1.2286 0
M  V30 68 Fe -1.3495 6.2592 0.2165 0
M  V30 69 Ag -0.3248 7.8532 1.6462 0
M  V30 70 Ag 2.2836 -7.2986 -1.1570 0
M  V30 71 Fe 3.1231 -5.6397 0.3216 0
M  V30 72 Ag 3.7804 -3.8594 1.7506 0
M  V30 73 Ba 3.1820 1.9139 4.0008 0
M  V30 74 Ga 2.9987 0.5377 3.5030 0
M  V30 75 Ba 2.6482 -0.8174 3.0381 0
M  V30 76 Ba -4.6504 -4.9200 1.7481 0
M  V30 77 Ga -5.0534 -4.0659 0.6230 0
M  V30 78 Ba -5.4200 -3.1700 -0.4820 0
M  V30 79 Ba -0.5517 -7.3425 -3.2247 0
M  V30 80 Ga -1.3261 -6.3073 -3.9836 0
M  V30 81 Ba -2.1928 -5.3720 -4.7718 0
M  V30 82 Ba -3.9831 -2.9686 3.0437 0
M  V30 83 Ga -4.4166 -2.0735 1.9457 0
M  V30 84 Ba -4.8452 -1.2085 0.8218 0
M  V30 85 Ba 5.2744 3.1391 2.8866 0
M  V30 86 Ga 4.9638 3.6486 1.5304 0
M  V30 87 Ba 4.6718 4.1632 0.1720 0
M  V30 88 Ba -3.6922 2.7053 -1.9845 0
M  V30 89 Ga -4.3239 1.4168 -1.6197 0
M  V30 90 Ba -5.0963 0.2111 -1.2433 0
M  V30 91 Ba -0.6527 4.1477 -2.9829 0
M  V30 92 Ga 0.7290 4.4037 -2.5223 0
M  V30 93 Ba 2.1302 4.7138 -2.1656 0
M  V30 94 Ba 3.2049 6.2899 -0.7899 0
M  V30 95 Ga 2.5797 7.3865 -0.0132 0
M  V30 96 Ba 1.9658 8.4983 0.7511 0
M  V30 97 Ba -5.3566 -2.0357 -2.5443 0
M  V30 98 Ga -4.5906 -2.6767 -3.6357 0
M  V30 99 Ba -3.8944 -3.3259 -4.7682 0
M  V30 END ATOM
M  V30 BEGIN BOND
M  V30 1 1 1 2
M  V30 2 1 1 3
M  V30 3 1 1 4
M  V30 4 1 1 5
M  V30 5 1 6 7
M  V30 6 1 6 8
M  V30 7 1 6 9
M  V30 8 1 6 10
M  V30 9 1 11 12
M  V30 10 1 11 13
M  V30 11 1 11 14
M  V30 12 1 11 15
M  V30 13 1 16 17
M  V30 14 1 16 18
M  V30 15 1 16 19
M  V30 16 1 16 20
M  V30 17 1 21 22
M  V30 18 1 21 23
M  V30 19 1 21 24
M  V30 20 1 21 25
M  V30 21 1 26 27
M  V30 22 1 26 28
M  V30 23 1 26 29
M  V30 24 1 26 30
M  V30 25 1 31 32
M  V30 26 1 31 33
M  V30 27 1 31 34
M  V30 28 1 31 35
M  V30 29 1 36 37
M  V30 30 1 36 38
M  V30 31 1 36 39
M  V30 32 1 36 40
M  V30 33 1 41 42
M  V30 34 1 41 43
M  V30 35 1 41 44
M  V30 36 1 41 45
M  V30 37 1 46 47
M  V30 38 1 47 48
M  V30 39 1 49 50
M  V30 40 1 50 51
M  V30 41 1 52 53
M  V30 42 1 53 54
M  V30 43 1 55 56
M  V30 44 1 56 57
M  V30 45 1 58 59
M  V30 46 1 59 60
M  V30 47 1 61 62
M  V30 48 1 62 63
M  V30 49 1 64 65
M  V30 50 1 65 66
M  V30 51 1 67 68
M  V30 52 1 68 69
M  V30 53 1 70 71
M  V30 54 1 71 72
M  V30 55 1 73 74
M  V30 56 1 74 75
M  V30 57 1 76 77
M  V30 58 1 77 78
M  V30 59 1 79 80
M  V30 60 1 80 81
M  V30 61 1 82 83
M  V30 62 1 83 84
M  V30 63 1 85 86
M  V30 64 1 86 87
M  V30 65 1 88 89
M  V30 66 1 89 90
M  V30 67 1 91 92
M  V30 68 1 92 93
M  V30 69 1 94 95
M  V30 70 1 95 96
M  V30 71 1 97 98
M  V30 72 1 98 99
M  V30 73 1 2 46
M  V30 74 1 3 67
M  V30 75 1 4 88
M  V30 76 1 5 91
M  V30 77 1 7 73
M  V30 78 1 8 61
M  V30 79 1 9 85
M  V30 80 1 10 58
M  V30 81 1 12 79
M  V30 82 1 13 70
M  V30 83 1 14 64
M  V30 84 1 15 55
M  V30 85 1 17 66
M  V30 86 1 18 76
M  V30 87 1 19 52
M  V30 88 1 20 82
M  V30 89 1 22 75
M  V30 90 1 23 72
M  V30 91 1 24 54
M  V30 92 1 25 49
M  V30 93 1 27 78
M  V30 94 1 28 97
M  V30 95 1 29 90
M  V30 96 1 30 84
M  V30 97 1 32 48
M  V30 98 1 33 99
M  V30 99 1 34 57
M  V30 100 1 35 81
M  V30 101 1 37 51
M  V30 102 1 38 94
M  V30 103 1 39 87
M  V30 104 1 40 93
M  V30 105 1 42 63
M  V30 106 1 43 69
M  V30 107 1 44 96
M  V30 108 1 45 60
M  V30 END BOND
M  V30 END CTAB
M  END

$$$$
