
     RDKit          3D

  0  0  0  0  0  0  0  0  0  0999 V3000
M  V30 BEGIN CTAB
M  V30 COUNTS 99 108 0 0 0
M  V30 BEGIN ATOM
M  V30 1 Pd -1.7510 3.4877 -2.0795 0
M  V30 2 Pb -1.7492 2.6191 -1.5830 0
M  V30 3 Pb -2.1519 3.0505 -2.8858 0
M  V30 4 Pb -1.7772 4.3608 -2.5684 0
M  V30 5 Pb -1.3476 3.9303 -1.2760 0
M  V30 6 Pd -0.7756 4.4582 -7.0129 0
M  V30 7 Pb -0.3801 3.7604 -7.6089 0
M  V30 8 Pb -1.1068 5.1281 -6.3503 0
M  V30 9 Pb -1.4522 3.8084 -6.6677 0
M  V30 10 Pb -0.0470 5.0790 -7.3015 0
M  V30 11 Pd 2.3076 -5.2207 1.0329 0
M  V30 12 Pb 1.6367 -5.9404 1.2193 0
M  V30 13 Pb 2.9289 -4.4531 0.8659 0
M  V30 14 Pb 2.4065 -5.0677 2.0142 0
M  V30 15 Pb 2.1920 -5.3549 0.0487 0
M  V30 16 Pd -1.1007 -2.8523 7.5063 0
M  V30 17 Pb -1.9181 -2.5210 7.9742 0
M  V30 18 Pb -1.5798 -3.6756 7.1994 0
M  V30 19 Pb -0.6638 -1.9564 7.6837 0
M  V30 20 Pb -0.2718 -3.1823 7.0580 0
M  V30 21 Pd -0.1776 -2.1873 -2.0028 0
M  V30 22 Pb -0.9751 -2.7299 -1.7374 0
M  V30 23 Pb 0.6331 -1.6839 -2.3055 0
M  V30 24 Pb 0.2592 -3.0195 -2.3381 0
M  V30 25 Pb -0.5993 -1.3831 -1.5785 0
M  V30 26 Pd 3.6652 3.1878 -6.1590 0
M  V30 27 Pb 3.1947 2.7407 -6.9192 0
M  V30 28 Pb 4.0529 3.6357 -5.3569 0
M  V30 29 Pb 3.5302 4.0616 -6.6240 0
M  V30 30 Pb 3.7109 2.3332 -5.6429 0
M  V30 31 Pd -2.6783 -4.7299 2.4722 0
M  V30 32 Pb -2.7185 -4.5964 1.4806 0
M  V30 33 Pb -3.1677 -3.8603 2.5580 0
M  V30 34 Pb -2.1390 -5.5636 2.3403 0
M  V30 35 Pb -2.7000 -4.9097 3.4635 0
M  V30 36 Pd 2.4183 2.3011 0.9971 0
M  V30 37 Pb 1.8609 1.7218 1.5898 0
M  V30 38 Pb 3.0375 1.5225 0.8828 0
M  V30 39 Pb 1.7575 3.0495 1.0621 0
M  V30 40 Pb 2.9836 2.8583 0.3903 0
M  V30 41 Pd -1.7533 1.7671 5.1490 0
M  V30 42 Pb -1.1152 1.6245 5.9136 0
M  V30 43 Pb -2.4694 2.0148 5.7987 0
M  V30 44 Pb -2.4444 1.6149 4.4492 0
M  V30 45 Pb -1.0691 1.3847 4.5283 0
M  V30 46 Ag 2.4649 -4.9351 2.7481 0
M  V30 47 Fe 1.4291 -4.1930 4.7498 0
M  V30 48 Ag 0.3448 -3.4418 6.7223 0
M  V30 49 Ag -3.4826 -3.1776 2.5439 0
M  V30 50 Fe -3.3511 -0.8926 3.1765 0
M  V30 51 Ag -2.9428 1.2989 3.9927 0
M  V30 52 Ag 1.2683 -1.3844 -2.5731 0
M  V30 53 Fe 2.4821 0.1779 -3.8886 0
M  V30 54 Ag 3.7162 1.7323 -5.1946 0
M  V30 55 Ag 4.2786 3.9091 -4.6994 0
M  V30 56 Fe 3.9229 3.6757 -2.3655 0
M  V30 57 Ag 3.3950 3.2594 -0.0902 0
M  V30 58 Ag -2.4851 -2.1277 8.2526 0
M  V30 59 Fe -3.2106 0.0413 7.6858 0
M  V30 60 Ag -2.9721 1.9602 6.3414 0
M  V30 61 Ag 3.3617 -3.8464 0.7681 0
M  V30 62 Fe 3.4793 -1.4725 0.7620 0
M  V30 63 Ag 3.4535 0.9040 0.7883 0
M  V30 64 Ba 1.4820 1.2336 2.0128 0
M  V30 65 Ga 0.4379 1.2015 3.0530 0
M  V30 66 Ba -0.5890 1.0076 4.0928 0
M  V30 67 Ba 0.5521 5.4887 -7.4891 0
M  V30 68 Ga 1.9745 5.1739 -7.2674 0
M  V30 69 Ba 3.3364 4.6996 -6.9650 0
M  V30 70 Ba -2.4467 2.7523 -3.5089 0
M  V30 71 Ga -2.2175 3.0106 -4.9435 0
M  V30 72 Ba -1.9331 3.3242 -6.3570 0
M  V30 73 Ba -0.3572 -1.2652 7.7847 0
M  V30 74 Ga -0.5050 0.0736 7.1460 0
M  V30 75 Ba -0.6737 1.4005 6.4882 0
M  V30 76 Ba -1.8164 5.0022 -2.9572 0
M  V30 77 Ga -1.5834 5.3357 -4.3749 0
M  V30 78 Ba -1.3308 5.5903 -5.8055 0
M  V30 79 Ba -1.0452 4.2511 -0.6667 0
M  V30 80 Ga 0.1000 3.9384 0.2122 0
M  V30 81 Ba 1.2508 3.6032 1.0752 0
M  V30 82 Ba -0.0076 3.2460 -8.0062 0
M  V30 83 Ga 1.3795 2.7891 -7.8093 0
M  V30 84 Ba 2.7736 2.4539 -7.4687 0
M  V30 85 Ba 1.1088 -6.4513 1.3781 0
M  V30 86 Ga -0.3023 -6.3370 1.8008 0
M  V30 87 Ba -1.7086 -6.1685 2.2216 0
M  V30 88 Ba -1.5691 -3.1584 -1.5740 0
M  V30 89 Ga -2.1557 -3.8152 -0.3893 0
M  V30 90 Ba -2.8089 -4.5053 0.7403 0
M  V30 91 Ba 2.0841 -5.4269 -0.6899 0
M  V30 92 Ga 1.3611 -4.5790 -1.6534 0
M  V30 93 Ba 0.6107 -3.6539 -2.5200 0
M  V30 94 Ba -1.7657 1.9914 -1.1722 0
M  V30 95 Ga -1.3231 0.5847 -1.2486 0
M  V30 96 Ba -0.9413 -0.8402 -1.1859 0
M  V30 97 Ba -1.9462 -4.2667 6.9147 0
M  V30 98 Ga -2.3313 -4.6680 5.5416 0
M  V30 99 Ba -2.7422 -5.1168 4.1911 0
M  V30 END ATOM
M  V30 BEGIN BOND
M  V30 1 1 1 2
M  V30 2 1 1 3
M  V30 3 1 1 4
M  V30 4 1 1 5
M  V30 5 1 6 7
M  V30 6 1 6 8
M  V30 7 1 6 9
M  V30 8 1 6 10
M  V30 9 1 11 12
M  V30 10 1 11 13
M  V30 11 1 11 14
M  V30 12 1 11 15
M  V30 13 1 16 17
M  V30 14 1 16 18
M  V30 15 1 16 19
M  V30 16 1 16 20
M  V30 17 1 21 22
M  V30 18 1 21 23
M  V30 19 1 21 24
M  V30 20 1 21 25
M  V30 21 1 26 27
M  V30 22 1 26 28
M  V30 23 1 26 29
M  V30 24 1 26 30
M  V30 25 1 31 32
M  V30 26 1 31 33
M  V30 27 1 31 34
M  V30 28 1 31 35
M  V30 29 1 36 37
M  V30 30 1 36 38
M  V30 31 1 36 39
M  V30 32 1 36 40
M  V30 33 1 41 42
M  V30 34 1 41 43
M  V30 35 1 41 44
M  V30 36 1 41 45
M  V30 37 1 46 47
M  V30 38 1 47 48
M  V30 39 1 49 50
M  V30 40 1 50 51
M  V30 41 1 52 53
M  V30 42 1 53 54
M  V30 43 1 55 56
M  V30 44 1 56 57
M  V30 45 1 58 59
M  V30 46 1 59 60
M  V30 47 1 61 62
M  V30 48 1 62 63
M  V30 49 1 64 65
M  V30 50 1 65 66
M  V30 51 1 67 68
M  V30 52 1 68 69
M  V30 53 1 70 71
M  V30 54 1 71 72
M  V30 55 1 73 74
M  V30 56 1 74 75
M  V30 57 1 76 77
M  V30 58 1 77 78
M  V30 59 1 79 80
M  V30 60 1 80 81
M  V30 61 1 82 83
M  V30 62 1 83 84
M  V30 63 1 85 86
M  V30 64 1 86 87
M  V30 65 1 88 89
M  V30 66 1 89 90
M  V30 67 1 91 92
M  V30 68 1 92 93
M  V30 69 1 94 95
M  V30 70 1 95 96
M  V30 71 1 97 98
M  V30 72 1 98 99
M  V30 73 1 2 94
M  V30 74 1 3 70
M  V30 75 1 4 76
M  V30 76 1 5 79
M  V30 77 1 7 82
M  V30 78 1 8 78
M  V30 79 1 9 72
M  V30 80 1 10 67
M  V30 81 1 12 85
M  V30 82 1 13 61
M  V30 83 1 14 46
M  V30 84 1 15 91
M  V30 85 1 17 58
M  V30 86 1 18 97
M  V30 87 1 19 73
M  V30 88 1 20 48
M  V30 89 1 22 88
M  V30 90 1 23 52
M  V30 91 1 24 93
M  V30 92 1 25 96
M  V30 93 1 27 84
M  V30 94 1 28 55
M  V30 95 1 29 69
M  V30 96 1 30 54
M  V30 97 1 32 90
M  V30 98 1 33 49
M  V30 99 1 34 87
M  V30 100 1 35 99
M  V30 101 1 37 64
M  V30 102 1 38 63
M  V30 103 1 39 81
M  V30 104 1 40 57
M  V30 105 1 42 75
M  V30 106 1 43 60
M  V30 107 1 44 51
M  V30 108 1 45 66
M  V30 END BOND
M  V30 END CTAB
M  END

$$$$
