
     RDKit          3D

  0  0  0  0  0  0  0  0  0  0999 V3000
M  V30 BEGIN CTAB
M  V30 COUNTS 99 108 0 0 0
M  V30 BEGIN ATOM
M  V30 1 Pd -9.1825 2.1541 1.8907 0
M  V30 2 Pb -8.6048 2.9149 1.7101 0
M  V30 3 Pb -8.8317 2.0724 2.8267 0
M  V30 4 Pb -9.9723 1.6185 2.1134 0
M  V30 5 Pb -9.2397 1.8307 0.9522 0
M  V30 6 Pd 1.1870 -0.0035 3.8230 0
M  V30 7 Pb 1.5301 -0.9270 3.9519 0
M  V30 8 Pb 0.7886 0.9088 3.5861 0
M  V30 9 Pb 0.3652 -0.2415 4.3491 0
M  V30 10 Pb 2.0219 -0.0041 3.2590 0
M  V30 11 Pd 5.4274 0.6183 -4.5743 0
M  V30 12 Pb 4.4859 0.2162 -4.5245 0
M  V30 13 Pb 5.1753 1.3735 -3.9779 0
M  V30 14 Pb 5.7801 -0.2386 -4.9362 0
M  V30 15 Pb 6.3734 0.9803 -4.6981 0
M  V30 16 Pd 6.9145 -0.2017 1.8476 0
M  V30 17 Pb 6.4719 0.6632 1.5960 0
M  V30 18 Pb 7.4007 -1.0762 1.6650 0
M  V30 19 Pb 6.0013 -0.6386 1.8461 0
M  V30 20 Pb 7.7913 0.2728 1.9697 0
M  V30 21 Pd -2.1151 3.6327 0.2743 0
M  V30 22 Pb -2.6070 3.4387 -0.5697 0
M  V30 23 Pb -1.6098 3.5572 1.1468 0
M  V30 24 Pb -2.9926 3.5716 0.6753 0
M  V30 25 Pb -1.3605 4.0259 -0.2341 0
M  V30 26 Pd -8.5266 -1.9256 2.3958 0
M  V30 27 Pb -9.4709 -1.7471 2.6392 0
M  V30 28 Pb -7.6329 -2.3064 2.1591 0
M  V30 29 Pb -8.2475 -1.5639 3.2687 0
M  V30 30 Pb -8.7573 -1.8455 1.4234 0
M  V30 31 Pd -0.6872 0.3242 -3.6631 0
M  V30 32 Pb -0.3849 1.1372 -4.1447 0
M  V30 33 Pb -1.0267 -0.5307 -3.2010 0
M  V30 34 Pb -1.5441 0.8147 -3.4011 0
M  V30 35 Pb 0.2117 -0.0947 -3.9216 0
M  V30 36 Pd 9.7041 -1.0151 -2.6117 0
M  V30 37 Pb 9.4726 -1.6117 -1.8194 0
M  V30 38 Pb 8.9961 -1.4605 -3.1368 0
M  V30 39 Pb 9.7697 -0.3154 -3.3252 0
M  V30 40 Pb 10.4582 -0.5715 -2.1421 0
M  V30 41 Pd -2.7393 -3.5864 0.7650 0
M  V30 42 Pb -2.8991 -3.7906 1.7271 0
M  V30 43 Pb -3.7125 -3.4011 0.7688 0
M  V30 44 Pb -2.5434 -3.2711 -0.1863 0
M  V30 45 Pb -1.8063 -3.8940 0.8566 0
M  V30 46 Ag 1.7042 -1.6245 3.7950 0
M  V30 47 Fe 0.5749 -3.1306 2.3756 0
M  V30 48 Ag -1.1261 -4.0842 1.0551 0
M  V30 49 Ag 5.0751 1.8184 -3.3881 0
M  V30 50 Fe 5.5258 1.6801 -1.0509 0
M  V30 51 Ag 6.1513 1.2268 1.2089 0
M  V30 52 Ag -8.1898 3.5001 1.6466 0
M  V30 53 Fe -5.9918 3.9994 1.0390 0
M  V30 54 Ag -3.7011 3.5648 0.8075 0
M  V30 55 Ag -0.2266 -0.6125 4.6300 0
M  V30 56 Fe -1.7511 -2.2565 3.8551 0
M  V30 57 Ag -2.9500 -3.7239 2.4554 0
M  V30 58 Ag 8.4641 0.6068 1.9863 0
M  V30 59 Fe 10.1976 0.6505 0.3932 0
M  V30 60 Ag 10.8867 -0.1728 -1.6951 0
M  V30 61 Ag -0.9005 4.3239 -0.7416 0
M  V30 62 Fe -0.1800 3.6470 -2.8778 0
M  V30 63 Ag -0.1405 1.8050 -4.3236 0
M  V30 64 Ba -7.1110 -2.7303 1.8391 0
M  V30 65 Ga -5.7006 -2.9245 1.4631 0
M  V30 66 Ba -4.4530 -3.4662 0.8778 0
M  V30 67 Ba 0.4657 1.6083 3.4703 0
M  V30 68 Ga -0.4075 2.4516 2.5673 0
M  V30 69 Ba -1.2093 3.4797 1.8016 0
M  V30 70 Ba -10.5745 1.2344 2.3027 0
M  V30 71 Ga -10.5800 -0.1840 2.5976 0
M  V30 72 Ba -10.1712 -1.5600 2.7807 0
M  V30 73 Ba -8.5114 1.8140 3.4603 0
M  V30 74 Ga -8.2133 0.3799 3.7076 0
M  V30 75 Ba -8.0587 -1.0927 3.8119 0
M  V30 76 Ba 6.1021 -0.9089 -5.0182 0
M  V30 77 Ga 7.3020 -1.3918 -4.3123 0
M  V30 78 Ba 8.5079 -1.7993 -3.5806 0
M  V30 79 Ba -2.9778 3.1805 -1.1613 0
M  V30 80 Ga -2.5910 2.2046 -2.2032 0
M  V30 81 Ba -2.1773 1.2122 -3.2294 0
M  V30 82 Ba -9.2184 1.3775 0.3526 0
M  V30 83 Ga -9.0114 -0.0987 0.4350 0
M  V30 84 Ba -8.8723 -1.5572 0.7316 0
M  V30 85 Ba 7.0939 1.2246 -4.8215 0
M  V30 86 Ga 8.4380 0.7798 -4.3555 0
M  V30 87 Ba 9.7144 0.2454 -3.8225 0
M  V30 88 Ba 3.8439 -0.2077 -4.5403 0
M  V30 89 Ga 2.3574 -0.2034 -4.3278 0
M  V30 90 Ba 0.8806 -0.4420 -4.1187 0
M  V30 91 Ba 2.5898 -0.3215 2.8502 0
M  V30 92 Ga 4.0235 -0.5795 2.5352 0
M  V30 93 Ba 5.2946 -0.8890 1.8230 0
M  V30 94 Ba 7.7512 -1.6886 1.3476 0
M  V30 95 Ga 8.4861 -1.8621 0.0491 0
M  V30 96 Ba 9.2483 -2.0409 -1.2262 0
M  V30 97 Ba -1.3255 -1.2024 -2.9547 0
M  V30 98 Ga -1.8147 -2.0308 -1.8069 0
M  V30 99 Ba -2.3752 -3.0925 -0.9147 0
M  V30 END ATOM
M  V30 BEGIN BOND
M  V30 1 1 1 2
M  V30 2 1 1 3
M  V30 3 1 1 4
M  V30 4 1 1 5
M  V30 5 1 6 7
M  V30 6 1 6 8
M  V30 7 1 6 9
M  V30 8 1 6 10
M  V30 9 1 11 12
M  V30 10 1 11 13
M  V30 11 1 11 14
M  V30 12 1 11 15
M  V30 13 1 16 17
M  V30 14 1 16 18
M  V30 15 1 16 19
M  V30 16 1 16 20
M  V30 17 1 21 22
M  V30 18 1 21 23
M  V30 19 1 21 24
M  V30 20 1 21 25
M  V30 21 1 26 27
M  V30 22 1 26 28
M  V30 23 1 26 29
M  V30 24 1 26 30
M  V30 25 1 31 32
M  V30 26 1 31 33
M  V30 27 1 31 34
M  V30 28 1 31 35
M  V30 29 1 36 37
M  V30 30 1 36 38
M  V30 31 1 36 39
M  V30 32 1 36 40
M  V30 33 1 41 42
M  V30 34 1 41 43
M  V30 35 1 41 44
M  V30 36 1 41 45
M  V30 37 1 46 47
M  V30 38 1 47 48
M  V30 39 1 49 50
M  V30 40 1 50 51
M  V30 41 1 52 53
M  V30 42 1 53 54
M  V30 43 1 55 56
M  V30 44 1 56 57
M  V30 45 1 58 59
M  V30 46 1 59 60
M  V30 47 1 61 62
M  V30 48 1 62 63
M  V30 49 1 64 65
M  V30 50 1 65 66
M  V30 51 1 67 68
M  V30 52 1 68 69
M  V30 53 1 70 71
M  V30 54 1 71 72
M  V30 55 1 73 74
M  V30 56 1 74 75
M  V30 57 1 76 77
M  V30 58 1 77 78
M  V30 59 1 79 80
M  V30 60 1 80 81
M  V30 61 1 82 83
M  V30 62 1 83 84
M  V30 63 1 85 86
M  V30 64 1 86 87
M  V30 65 1 88 89
M  V30 66 1 89 90
M  V30 67 1 91 92
M  V30 68 1 92 93
M  V30 69 1 94 95
M  V30 70 1 95 96
M  V30 71 1 97 98
M  V30 72 1 98 99
M  V30 73 1 2 52
M  V30 74 1 3 73
M  V30 75 1 4 70
M  V30 76 1 5 82
M  V30 77 1 7 46
M  V30 78 1 8 67
M  V30 79 1 9 55
M  V30 80 1 10 91
M  V30 81 1 12 88
M  V30 82 1 13 49
M  V30 83 1 14 76
M  V30 84 1 15 85
M  V30 85 1 17 51
M  V30 86 1 18 94
M  V30 87 1 19 93
M  V30 88 1 20 58
M  V30 89 1 22 79
M  V30 90 1 23 69
M  V30 91 1 24 54
M  V30 92 1 25 61
M  V30 93 1 27 72
M  V30 94 1 28 64
M  V30 95 1 29 75
M  V30 96 1 30 84
M  V30 97 1 32 63
M  V30 98 1 33 97
M  V30 99 1 34 81
M  V30 100 1 35 90
M  V30 101 1 37 96
M  V30 102 1 38 78
M  V30 103 1 39 87
M  V30 104 1 40 60
M  V30 105 1 42 57
M  V30 106 1 43 66
M  V30 107 1 44 99
M  V30 108 1 45 48
M  V30 END BOND
M  V30 END CTAB
M  END

$$$$
