
     RDKit          3D

  0  0  0  0  0  0  0  0  0  0999 V3000
M  V30 BEGIN CTAB
M  V30 COUNTS 99 108 0 0 0
M  V30 BEGIN ATOM
M  V30 1 Pd -3.7600 1.4582 -0.1891 0
M  V30 2 Pb -4.1261 0.9599 0.5928 0
M  V30 3 Pb -3.1419 0.6781 -0.2753 0
M  V30 4 Pb -4.3694 2.2358 -0.0168 0
M  V30 5 Pb -3.3404 1.9291 -0.9685 0
M  V30 6 Pd 0.3694 -7.1010 -4.3906 0
M  V30 7 Pb 1.2070 -6.6101 -4.1486 0
M  V30 8 Pb -0.5078 -7.5417 -4.5882 0
M  V30 9 Pb 0.2695 -6.4939 -5.1752 0
M  V30 10 Pb 0.3966 -7.6078 -3.5310 0
M  V30 11 Pd 4.0268 0.5644 3.1911 0
M  V30 12 Pb 3.4586 -0.2555 3.2885 0
M  V30 13 Pb 4.4549 0.1765 2.3665 0
M  V30 14 Pb 4.6067 1.3827 3.1429 0
M  V30 15 Pb 3.6429 0.9065 4.0512 0
M  V30 16 Pd 3.5473 5.8445 1.8002 0
M  V30 17 Pb 4.2728 5.3107 2.2376 0
M  V30 18 Pb 2.7774 6.3030 1.3545 0
M  V30 19 Pb 3.9195 5.5862 0.9155 0
M  V30 20 Pb 3.1051 6.0547 2.6691 0
M  V30 21 Pd 3.8801 -0.2793 -2.6073 0
M  V30 22 Pb 3.7701 -1.2612 -2.7794 0
M  V30 23 Pb 4.3638 -0.4906 -1.7519 0
M  V30 24 Pb 4.0742 0.6885 -2.4745 0
M  V30 25 Pb 3.4124 -0.0241 -3.4579 0
M  V30 26 Pd -3.4043 5.6703 3.1005 0
M  V30 27 Pb -2.9681 6.1619 2.3484 0
M  V30 28 Pb -3.7169 5.1218 3.8733 0
M  V30 29 Pb -4.1376 5.3473 2.4977 0
M  V30 30 Pb -2.6283 5.9468 3.6656 0
M  V30 31 Pd -0.5168 -0.2794 5.7683 0
M  V30 32 Pb -1.3373 -0.6973 5.3874 0
M  V30 33 Pb -1.1408 0.3978 6.1558 0
M  V30 34 Pb 0.2906 0.2234 6.0739 0
M  V30 35 Pb 0.0834 -0.9233 5.2911 0
M  V30 36 Pd -1.2084 0.1018 -4.9409 0
M  V30 37 Pb -0.2825 0.4279 -5.1369 0
M  V30 38 Pb -2.1001 -0.2920 -4.7219 0
M  V30 39 Pb -1.0011 -0.7150 -5.4792 0
M  V30 40 Pb -1.4305 0.9282 -4.4177 0
M  V30 41 Pd -3.0722 -5.9873 -1.6900 0
M  V30 42 Pb -3.3569 -6.6860 -2.3431 0
M  V30 43 Pb -2.6705 -5.2395 -1.1651 0
M  V30 44 Pb -3.6478 -5.2980 -2.1261 0
M  V30 45 Pb -2.4279 -6.6489 -1.3056 0
M  V30 46 Ag 1.8135 -6.2088 -3.9626 0
M  V30 47 Fe 2.7562 -4.0912 -3.4347 0
M  V30 48 Ag 3.7615 -2.0047 -2.8989 0
M  V30 49 Ag -4.2797 0.5238 1.1792 0
M  V30 50 Fe -3.2917 -0.2972 3.1713 0
M  V30 51 Ag -1.9853 -0.8753 5.0628 0
M  V30 52 Ag 4.1585 5.3291 0.2598 0
M  V30 53 Fe 4.2378 3.4036 -1.1178 0
M  V30 54 Ag 4.2486 1.4099 -2.3974 0
M  V30 55 Ag 2.1496 6.5962 1.0657 0
M  V30 56 Fe -0.2114 6.6527 1.3158 0
M  V30 57 Ag -2.5204 6.4908 1.8462 0
M  V30 58 Ag 2.6631 6.2032 3.2529 0
M  V30 59 Fe 0.3595 6.2186 3.8188 0
M  V30 60 Ag -2.0007 6.1186 4.0360 0
M  V30 61 Ag 0.1737 -5.9581 -5.6870 0
M  V30 62 Fe -0.3304 -3.6480 -5.8896 0
M  V30 63 Ag -0.8458 -1.3313 -5.8773 0
M  V30 64 Ag -2.7260 -0.6625 -4.5436 0
M  V30 65 Fe -3.5188 -2.6542 -3.5258 0
M  V30 66 Ag -3.9891 -4.7191 -2.4552 0
M  V30 67 Ag -2.7189 0.0610 -0.2277 0
M  V30 68 Fe -2.4934 -2.2823 -0.5362 0
M  V30 69 Ag -2.3459 -4.6265 -0.8830 0
M  V30 70 Ag -3.8046 4.6902 4.4781 0
M  V30 71 Fe -2.8422 2.7995 5.5421 0
M  V30 72 Ag -1.6717 0.8942 6.3381 0
M  V30 73 Ba 3.0959 0.2443 -4.0875 0
M  V30 74 Ga 1.7489 0.4148 -4.6732 0
M  V30 75 Ba 0.4266 0.6098 -5.3059 0
M  V30 76 Ba 3.3765 1.1352 4.7164 0
M  V30 77 Ga 2.1460 0.8878 5.4933 0
M  V30 78 Ba 0.9029 0.6208 6.2432 0
M  V30 79 Ba 0.3212 -7.9164 -2.8538 0
M  V30 80 Ga -0.7533 -7.6044 -1.8957 0
M  V30 81 Ba -1.9058 -7.1467 -1.1004 0
M  V30 82 Ba -1.1922 -7.8428 -4.6611 0
M  V30 83 Ga -2.3851 -7.5887 -3.8330 0
M  V30 84 Ba -3.4448 -7.1885 -2.8899 0
M  V30 85 Ba 3.0357 -0.8678 3.3987 0
M  V30 86 Ga 1.7887 -1.1366 4.1445 0
M  V30 87 Ba 0.5402 -1.3729 4.8988 0
M  V30 88 Ba 5.0469 1.9949 3.1582 0
M  V30 89 Ga 4.9207 3.4335 2.8385 0
M  V30 90 Ba 4.8140 4.8747 2.5237 0
M  V30 91 Ba -4.8248 2.8122 0.1488 0
M  V30 92 Ga -4.7497 3.9586 1.0806 0
M  V30 93 Ba -4.6615 5.1006 2.0166 0
M  V30 94 Ba -3.0079 2.2864 -1.5414 0
M  V30 95 Ga -2.3126 1.9006 -2.7882 0
M  V30 96 Ba -1.6108 1.5561 -4.0434 0
M  V30 97 Ba 4.8151 -0.1591 1.7920 0
M  V30 98 Ga 4.7289 -0.3659 0.3269 0
M  V30 99 Ba 4.7588 -0.6475 -1.1280 0
M  V30 END ATOM
M  V30 BEGIN BOND
M  V30 1 1 1 2
M  V30 2 1 1 3
M  V30 3 1 1 4
M  V30 4 1 1 5
M  V30 5 1 6 7
M  V30 6 1 6 8
M  V30 7 1 6 9
M  V30 8 1 6 10
M  V30 9 1 11 12
M  V30 10 1 11 13
M  V30 11 1 11 14
M  V30 12 1 11 15
M  V30 13 1 16 17
M  V30 14 1 16 18
M  V30 15 1 16 19
M  V30 16 1 16 20
M  V30 17 1 21 22
M  V30 18 1 21 23
M  V30 19 1 21 24
M  V30 20 1 21 25
M  V30 21 1 26 27
M  V30 22 1 26 28
M  V30 23 1 26 29
M  V30 24 1 26 30
M  V30 25 1 31 32
M  V30 26 1 31 33
M  V30 27 1 31 34
M  V30 28 1 31 35
M  V30 29 1 36 37
M  V30 30 1 36 38
M  V30 31 1 36 39
M  V30 32 1 36 40
M  V30 33 1 41 42
M  V30 34 1 41 43
M  V30 35 1 41 44
M  V30 36 1 41 45
M  V30 37 1 46 47
M  V30 38 1 47 48
M  V30 39 1 49 50
M  V30 40 1 50 51
M  V30 41 1 52 53
M  V30 42 1 53 54
M  V30 43 1 55 56
M  V30 44 1 56 57
M  V30 45 1 58 59
M  V30 46 1 59 60
M  V30 47 1 61 62
M  V30 48 1 62 63
M  V30 49 1 64 65
M  V30 50 1 65 66
M  V30 51 1 67 68
M  V30 52 1 68 69
M  V30 53 1 70 71
M  V30 54 1 71 72
M  V30 55 1 73 74
M  V30 56 1 74 75
M  V30 57 1 76 77
M  V30 58 1 77 78
M  V30 59 1 79 80
M  V30 60 1 80 81
M  V30 61 1 82 83
M  V30 62 1 83 84
M  V30 63 1 85 86
M  V30 64 1 86 87
M  V30 65 1 88 89
M  V30 66 1 89 90
M  V30 67 1 91 92
M  V30 68 1 92 93
M  V30 69 1 94 95
M  V30 70 1 95 96
M  V30 71 1 97 98
M  V30 72 1 98 99
M  V30 73 1 2 49
M  V30 74 1 3 67
M  V30 75 1 4 91
M  V30 76 1 5 94
M  V30 77 1 7 46
M  V30 78 1 8 82
M  V30 79 1 9 61
M  V30 80 1 10 79
M  V30 81 1 12 85
M  V30 82 1 13 97
M  V30 83 1 14 88
M  V30 84 1 15 76
M  V30 85 1 17 90
M  V30 86 1 18 55
M  V30 87 1 19 52
M  V30 88 1 20 58
M  V30 89 1 22 48
M  V30 90 1 23 99
M  V30 91 1 24 54
M  V30 92 1 25 73
M  V30 93 1 27 57
M  V30 94 1 28 70
M  V30 95 1 29 93
M  V30 96 1 30 60
M  V30 97 1 32 51
M  V30 98 1 33 72
M  V30 99 1 34 78
M  V30 100 1 35 87
M  V30 101 1 37 75
M  V30 102 1 38 64
M  V30 103 1 39 63
M  V30 104 1 40 96
M  V30 105 1 42 84
M  V30 106 1 43 69
M  V30 107 1 44 66
M  V30 108 1 45 81
M  V30 END BOND
M  V30 END CTAB
M  END

$$$$
