
     RDKit          3D

  0  0  0  0  0  0  0  0  0  0999 V3000
M  V30 BEGIN CTAB
M  V30 COUNTS 99 108 0 0 0
M  V30 BEGIN ATOM
M  V30 1 Pd -0.0680 -3.5143 4.9054 0
M  V30 2 Pb 0.7494 -3.0819 5.2858 0
M  V30 3 Pb -0.6615 -2.9018 5.4291 0
M  V30 4 Pb 0.4976 -4.1739 4.4068 0
M  V30 5 Pb -0.8866 -3.8511 4.4472 0
M  V30 6 Pd -4.5868 4.8215 0.2223 0
M  V30 7 Pb -3.6262 4.6727 -0.0042 0
M  V30 8 Pb -5.5350 4.9166 0.5054 0
M  V30 9 Pb -4.9028 4.2513 -0.5345 0
M  V30 10 Pb -4.3216 5.1990 1.1101 0
M  V30 11 Pd 3.6205 3.6554 -2.7766 0
M  V30 12 Pb 3.2586 4.1611 -2.0025 0
M  V30 13 Pb 2.8827 4.0086 -3.3544 0
M  V30 14 Pb 3.9734 3.1608 -3.5723 0
M  V30 15 Pb 4.3432 3.2658 -2.1696 0
M  V30 16 Pd 3.4368 -2.7857 -6.6078 0
M  V30 17 Pb 3.8062 -1.8720 -6.7670 0
M  V30 18 Pb 3.0851 -3.6673 -6.2871 0
M  V30 19 Pb 2.5173 -2.4371 -6.7834 0
M  V30 20 Pb 4.3419 -3.1076 -6.3446 0
M  V30 21 Pd -1.2333 1.9349 -3.3090 0
M  V30 22 Pb -1.2268 2.5071 -2.4906 0
M  V30 23 Pb -0.8052 2.6953 -3.7978 0
M  V30 24 Pb -1.1850 1.3631 -4.1276 0
M  V30 25 Pb -1.5968 1.1468 -2.8080 0
M  V30 26 Pd 5.0892 -5.8389 -0.5502 0
M  V30 27 Pb 4.4557 -6.2082 -1.2328 0
M  V30 28 Pb 5.6881 -5.3366 0.0700 0
M  V30 29 Pb 4.4670 -6.0511 0.2042 0
M  V30 30 Pb 5.6863 -5.6008 -1.3119 0
M  V30 31 Pd 5.2493 1.0264 2.4282 0
M  V30 32 Pb 4.9482 0.6155 3.2896 0
M  V30 33 Pb 5.7866 0.1984 2.2676 0
M  V30 34 Pb 5.5033 1.4145 1.5189 0
M  V30 35 Pb 4.7073 1.8377 2.6125 0
M  V30 36 Pd -5.1996 -0.4944 0.3613 0
M  V30 37 Pb -4.3948 -0.5780 -0.2295 0
M  V30 38 Pb -5.9921 -0.4959 0.9828 0
M  V30 39 Pb -5.4953 0.2917 -0.1954 0
M  V30 40 Pb -4.8982 -1.3092 0.8561 0
M  V30 41 Pd -6.3036 1.2043 5.2964 0
M  V30 42 Pb -6.9884 1.7913 4.8772 0
M  V30 43 Pb -5.5829 0.6403 5.7032 0
M  V30 44 Pb -6.7428 0.4447 4.8170 0
M  V30 45 Pb -5.8049 2.0336 5.5487 0
M  V30 46 Ag 1.3581 -2.7036 5.5070 0
M  V30 47 Fe 3.0703 -1.2179 4.7971 0
M  V30 48 Ag 4.7002 0.2611 3.9032 0
M  V30 49 Ag 1.8387 -2.1289 -6.8554 0
M  V30 50 Fe 0.2947 -0.6222 -5.8646 0
M  V30 51 Ag -1.1099 0.9144 -4.7234 0
M  V30 52 Ag 2.8969 -4.3047 -5.9347 0
M  V30 53 Fe 3.3393 -5.4850 -3.9182 0
M  V30 54 Ag 4.0118 -6.3733 -1.8173 0
M  V30 55 Ag -4.2005 5.3263 1.8399 0
M  V30 56 Fe -4.6931 4.2021 3.8739 0
M  V30 57 Ag -5.4334 2.6855 5.5458 0
M  V30 58 Ag -6.2065 4.8893 0.8200 0
M  V30 59 Fe -7.1354 3.7020 2.6389 0
M  V30 60 Ag -7.4145 2.2612 4.4905 0
M  V30 61 Ag 3.0503 4.4478 -1.3532 0
M  V30 62 Fe 3.4420 3.7878 0.8733 0
M  V30 63 Ag 4.2967 2.4529 2.6151 0
M  V30 64 Ag 4.9713 -3.3712 -6.0448 0
M  V30 65 Fe 5.7207 -4.4007 -4.0472 0
M  V30 66 Ag 6.0589 -5.4010 -1.9266 0
M  V30 67 Ag 4.2000 2.8041 -4.1935 0
M  V30 68 Fe 4.1841 0.8495 -5.5426 0
M  V30 69 Ag 4.0796 -1.1751 -6.7798 0
M  V30 70 Ag 0.9019 -4.6996 4.0526 0
M  V30 71 Fe 2.4543 -5.4227 2.4051 0
M  V30 72 Ag 4.0013 -6.1954 0.7750 0
M  V30 73 Ag -1.5127 -4.0070 4.0710 0
M  V30 74 Fe -3.1381 -3.0393 2.6384 0
M  V30 75 Ag -4.6799 -1.9298 1.2158 0
M  V30 76 Ag -1.1462 -2.4861 5.8241 0
M  V30 77 Fe -3.0803 -1.1076 5.9075 0
M  V30 78 Ag -5.0114 0.2725 6.0242 0
M  V30 79 Ag 6.1063 -4.8736 0.4828 0
M  V30 80 Fe 6.2074 -2.6758 1.3745 0
M  V30 81 Ag 6.1592 -0.4487 2.1957 0
M  V30 82 Ba -2.8970 4.5496 -0.1182 0
M  V30 83 Ga -2.0622 3.7467 -1.0282 0
M  V30 84 Ba -1.1691 2.9681 -1.9035 0
M  V30 85 Ba -1.8113 0.5103 -2.4696 0
M  V30 86 Ga -2.8366 -0.0272 -1.5520 0
M  V30 87 Ba -3.7864 -0.7110 -0.6505 0
M  V30 88 Ba 4.9160 2.9855 -1.7373 0
M  V30 89 Ga 5.2315 2.3400 -0.4215 0
M  V30 90 Ba 5.7276 1.6947 0.8374 0
M  V30 91 Ba -5.2035 3.7528 -1.0081 0
M  V30 92 Ga -5.4311 2.2967 -0.8549 0
M  V30 93 Ba -5.6598 0.8420 -0.6903 0
M  V30 94 Ba -6.5434 -0.6287 1.4863 0
M  V30 95 Ga -6.8214 -0.3303 2.9125 0
M  V30 96 Ba -7.0916 -0.0177 4.3371 0
M  V30 97 Ba 2.3164 4.2466 -3.7872 0
M  V30 98 Ga 0.9298 3.7786 -3.9809 0
M  V30 99 Ba -0.4456 3.2637 -4.1301 0
M  V30 END ATOM
M  V30 BEGIN BOND
M  V30 1 1 1 2
M  V30 2 1 1 3
M  V30 3 1 1 4
M  V30 4 1 1 5
M  V30 5 1 6 7
M  V30 6 1 6 8
M  V30 7 1 6 9
M  V30 8 1 6 10
M  V30 9 1 11 12
M  V30 10 1 11 13
M  V30 11 1 11 14
M  V30 12 1 11 15
M  V30 13 1 16 17
M  V30 14 1 16 18
M  V30 15 1 16 19
M  V30 16 1 16 20
M  V30 17 1 21 22
M  V30 18 1 21 23
M  V30 19 1 21 24
M  V30 20 1 21 25
M  V30 21 1 26 27
M  V30 22 1 26 28
M  V30 23 1 26 29
M  V30 24 1 26 30
M  V30 25 1 31 32
M  V30 26 1 31 33
M  V30 27 1 31 34
M  V30 28 1 31 35
M  V30 29 1 36 37
M  V30 30 1 36 38
M  V30 31 1 36 39
M  V30 32 1 36 40
M  V30 33 1 41 42
M  V30 34 1 41 43
M  V30 35 1 41 44
M  V30 36 1 41 45
M  V30 37 1 46 47
M  V30 38 1 47 48
M  V30 39 1 49 50
M  V30 40 1 50 51
M  V30 41 1 52 53
M  V30 42 1 53 54
M  V30 43 1 55 56
M  V30 44 1 56 57
M  V30 45 1 58 59
M  V30 46 1 59 60
M  V30 47 1 61 62
M  V30 48 1 62 63
M  V30 49 1 64 65
M  V30 50 1 65 66
M  V30 51 1 67 68
M  V30 52 1 68 69
M  V30 53 1 70 71
M  V30 54 1 71 72
M  V30 55 1 73 74
M  V30 56 1 74 75
M  V30 57 1 76 77
M  V30 58 1 77 78
M  V30 59 1 79 80
M  V30 60 1 80 81
M  V30 61 1 82 83
M  V30 62 1 83 84
M  V30 63 1 85 86
M  V30 64 1 86 87
M  V30 65 1 88 89
M  V30 66 1 89 90
M  V30 67 1 91 92
M  V30 68 1 92 93
M  V30 69 1 94 95
M  V30 70 1 95 96
M  V30 71 1 97 98
M  V30 72 1 98 99
M  V30 73 1 2 46
M  V30 74 1 3 76
M  V30 75 1 4 70
M  V30 76 1 5 73
M  V30 77 1 7 82
M  V30 78 1 8 58
M  V30 79 1 9 91
M  V30 80 1 10 55
M  V30 81 1 12 61
M  V30 82 1 13 97
M  V30 83 1 14 67
M  V30 84 1 15 88
M  V30 85 1 17 69
M  V30 86 1 18 52
M  V30 87 1 19 49
M  V30 88 1 20 64
M  V30 89 1 22 84
M  V30 90 1 23 99
M  V30 91 1 24 51
M  V30 92 1 25 85
M  V30 93 1 27 54
M  V30 94 1 28 79
M  V30 95 1 29 72
M  V30 96 1 30 66
M  V30 97 1 32 48
M  V30 98 1 33 81
M  V30 99 1 34 90
M  V30 100 1 35 63
M  V30 101 1 37 87
M  V30 102 1 38 94
M  V30 103 1 39 93
M  V30 104 1 40 75
M  V30 105 1 42 60
M  V30 106 1 43 78
M  V30 107 1 44 96
M  V30 108 1 45 57
M  V30 END BOND
M  V30 END CTAB
M  END

$$$$
