
     RDKit          3D

  0  0  0  0  0  0  0  0  0  0999 V3000
M  V30 BEGIN CTAB
M  V30 COUNTS 99 108 0 0 0
M  V30 BEGIN ATOM
M  V30 1 Pd 2.2880 -3.1700 -0.9439 0
M  V30 2 Pb 2.4502 -2.3496 -1.4974 0
M  V30 3 Pb 3.2750 -3.1613 -0.7734 0
M  V30 4 Pb 1.2968 -3.1868 -1.1007 0
M  V30 5 Pb 2.1621 -3.9864 -0.3764 0
M  V30 6 Pd 5.1085 2.2159 5.2464 0
M  V30 7 Pb 4.3946 2.5823 4.6470 0
M  V30 8 Pb 5.8235 1.8379 5.8322 0
M  V30 9 Pb 4.4125 1.7822 5.8154 0
M  V30 10 Pb 5.8264 2.5085 4.6122 0
M  V30 11 Pd -3.2262 4.4925 -2.4100 0
M  V30 12 Pb -2.2360 4.4316 -2.2802 0
M  V30 13 Pb -3.2979 4.9018 -1.4994 0
M  V30 14 Pb -4.2163 4.5784 -2.5547 0
M  V30 15 Pb -3.1213 4.0705 -3.3111 0
M  V30 16 Pd -7.5287 1.1883 -2.9901 0
M  V30 17 Pb -7.4309 2.1838 -3.0287 0
M  V30 18 Pb -7.7158 1.1346 -3.9674 0
M  V30 19 Pb -7.3461 1.2239 -2.0098 0
M  V30 20 Pb -7.5479 0.1757 -2.9575 0
M  V30 21 Pd -2.2685 2.4608 2.3565 0
M  V30 22 Pb -1.3019 2.7048 2.4637 0
M  V30 23 Pb -2.4783 3.3998 2.0814 0
M  V30 24 Pb -3.2282 2.2278 2.2165 0
M  V30 25 Pb -2.1075 1.5022 2.5946 0
M  V30 26 Pd -4.6240 -3.3820 -4.7962 0
M  V30 27 Pb -5.1371 -3.1541 -5.6191 0
M  V30 28 Pb -3.7814 -3.4499 -5.3219 0
M  V30 29 Pb -4.0857 -3.5039 -3.9604 0
M  V30 30 Pb -5.4499 -3.1736 -4.2509 0
M  V30 31 Pd 0.5412 1.2662 -4.3172 0
M  V30 32 Pb 1.3446 0.8530 -3.8917 0
M  V30 33 Pb 0.4408 0.4608 -4.8967 0
M  V30 34 Pb -0.2781 1.6687 -4.7293 0
M  V30 35 Pb 0.6117 2.0573 -3.7116 0
M  V30 36 Pd 1.6251 -4.0304 4.3080 0
M  V30 37 Pb 0.7386 -3.6463 4.0581 0
M  V30 38 Pb 2.5433 -4.3532 4.5324 0
M  V30 39 Pb 1.6779 -3.3529 5.0412 0
M  V30 40 Pb 1.6015 -4.6554 3.5272 0
M  V30 41 Pd 8.1044 -1.1165 3.6051 0
M  V30 42 Pb 8.2363 -0.7793 4.5343 0
M  V30 43 Pb 7.8944 -1.4578 2.6887 0
M  V30 44 Pb 7.8660 -2.0183 3.9587 0
M  V30 45 Pb 8.2145 -0.1751 3.2795 0
M  V30 46 Ag 3.8602 2.8543 4.1939 0
M  V30 47 Fe 1.6253 2.8540 3.3829 0
M  V30 48 Ag -0.5846 2.9281 2.5096 0
M  V30 49 Ag -2.0669 0.7671 2.7431 0
M  V30 50 Fe -0.9680 -1.2595 3.3123 0
M  V30 51 Ag 0.0975 -3.3042 3.8807 0
M  V30 52 Ag -7.1970 1.2568 -1.2777 0
M  V30 53 Fe -5.6059 1.6450 0.4383 0
M  V30 54 Ag -3.9413 2.0517 2.0786 0
M  V30 55 Ag -7.7841 0.9424 -4.6818 0
M  V30 56 Fe -6.8729 -0.8736 -5.8801 0
M  V30 57 Ag -5.5625 -2.8189 -6.1261 0
M  V30 58 Ag 3.9137 1.3595 6.1789 0
M  V30 59 Fe 2.7511 -0.7012 5.9927 0
M  V30 60 Ag 1.7317 -2.7964 5.5405 0
M  V30 61 Ag 0.5492 -3.2696 -1.1529 0
M  V30 62 Fe -1.5368 -3.3975 -2.2880 0
M  V30 63 Ag -3.6665 -3.5391 -3.3372 0
M  V30 64 Ag 3.2567 -4.5343 4.6688 0
M  V30 65 Fe 5.4861 -3.7401 4.5049 0
M  V30 66 Ag 7.5777 -2.6610 4.2084 0
M  V30 67 Ag 4.0181 -3.1081 -0.6717 0
M  V30 68 Fe 5.8730 -2.4418 0.6560 0
M  V30 69 Ag 7.6843 -1.7558 2.0328 0
M  V30 70 Ag -3.1205 -3.3771 -5.6574 0
M  V30 71 Fe -1.2889 -1.8751 -5.6247 0
M  V30 72 Ag 0.3105 -0.1591 -5.2922 0
M  V30 73 Ba 2.6936 -1.7464 -1.8774 0
M  V30 74 Ga 2.2566 -0.6201 -2.7257 0
M  V30 75 Ba 1.9515 0.5449 -3.5800 0
M  V30 76 Ba -3.0127 3.7467 -3.9795 0
M  V30 77 Ga -1.9628 2.8578 -4.5158 0
M  V30 78 Ba -0.8994 1.9697 -5.0263 0
M  V30 79 Ba 6.3902 2.6266 4.1285 0
M  V30 80 Ga 7.3456 1.6452 3.5703 0
M  V30 81 Ba 8.2266 0.5552 3.0979 0
M  V30 82 Ba 6.3832 1.5323 6.2238 0
M  V30 83 Ga 7.3650 0.5218 5.8016 0
M  V30 84 Ba 8.2629 -0.4884 5.2217 0
M  V30 85 Ba -1.4917 4.3972 -2.1893 0
M  V30 86 Ga -0.4195 3.5302 -2.7117 0
M  V30 87 Ba 0.6310 2.6466 -3.2501 0
M  V30 88 Ba -7.5670 -0.5865 -2.9256 0
M  V30 89 Ga -6.7885 -1.7637 -3.4064 0
M  V30 90 Ba -6.0697 -2.9937 -3.8465 0
M  V30 91 Ba -4.9552 4.6646 -2.6787 0
M  V30 92 Ga -6.1348 3.7906 -2.8570 0
M  V30 93 Ba -7.3220 2.9272 -3.0365 0
M  V30 94 Ba 2.0428 -4.5977 0.0454 0
M  V30 95 Ga 1.8274 -4.8572 1.4834 0
M  V30 96 Ba 1.6139 -5.1020 2.9242 0
M  V30 97 Ba -3.3068 5.1978 -0.8093 0
M  V30 98 Ga -2.9947 4.6610 0.5302 0
M  V30 99 Ba -2.6749 4.0873 1.8525 0
M  V30 END ATOM
M  V30 BEGIN BOND
M  V30 1 1 1 2
M  V30 2 1 1 3
M  V30 3 1 1 4
M  V30 4 1 1 5
M  V30 5 1 6 7
M  V30 6 1 6 8
M  V30 7 1 6 9
M  V30 8 1 6 10
M  V30 9 1 11 12
M  V30 10 1 11 13
M  V30 11 1 11 14
M  V30 12 1 11 15
M  V30 13 1 16 17
M  V30 14 1 16 18
M  V30 15 1 16 19
M  V30 16 1 16 20
M  V30 17 1 21 22
M  V30 18 1 21 23
M  V30 19 1 21 24
M  V30 20 1 21 25
M  V30 21 1 26 27
M  V30 22 1 26 28
M  V30 23 1 26 29
M  V30 24 1 26 30
M  V30 25 1 31 32
M  V30 26 1 31 33
M  V30 27 1 31 34
M  V30 28 1 31 35
M  V30 29 1 36 37
M  V30 30 1 36 38
M  V30 31 1 36 39
M  V30 32 1 36 40
M  V30 33 1 41 42
M  V30 34 1 41 43
M  V30 35 1 41 44
M  V30 36 1 41 45
M  V30 37 1 46 47
M  V30 38 1 47 48
M  V30 39 1 49 50
M  V30 40 1 50 51
M  V30 41 1 52 53
M  V30 42 1 53 54
M  V30 43 1 55 56
M  V30 44 1 56 57
M  V30 45 1 58 59
M  V30 46 1 59 60
M  V30 47 1 61 62
M  V30 48 1 62 63
M  V30 49 1 64 65
M  V30 50 1 65 66
M  V30 51 1 67 68
M  V30 52 1 68 69
M  V30 53 1 70 71
M  V30 54 1 71 72
M  V30 55 1 73 74
M  V30 56 1 74 75
M  V30 57 1 76 77
M  V30 58 1 77 78
M  V30 59 1 79 80
M  V30 60 1 80 81
M  V30 61 1 82 83
M  V30 62 1 83 84
M  V30 63 1 85 86
M  V30 64 1 86 87
M  V30 65 1 88 89
M  V30 66 1 89 90
M  V30 67 1 91 92
M  V30 68 1 92 93
M  V30 69 1 94 95
M  V30 70 1 95 96
M  V30 71 1 97 98
M  V30 72 1 98 99
M  V30 73 1 2 73
M  V30 74 1 3 67
M  V30 75 1 4 61
M  V30 76 1 5 94
M  V30 77 1 7 46
M  V30 78 1 8 82
M  V30 79 1 9 58
M  V30 80 1 10 79
M  V30 81 1 12 85
M  V30 82 1 13 97
M  V30 83 1 14 91
M  V30 84 1 15 76
M  V30 85 1 17 93
M  V30 86 1 18 55
M  V30 87 1 19 52
M  V30 88 1 20 88
M  V30 89 1 22 48
M  V30 90 1 23 99
M  V30 91 1 24 54
M  V30 92 1 25 49
M  V30 93 1 27 57
M  V30 94 1 28 70
M  V30 95 1 29 63
M  V30 96 1 30 90
M  V30 97 1 32 75
M  V30 98 1 33 72
M  V30 99 1 34 78
M  V30 100 1 35 87
M  V30 101 1 37 51
M  V30 102 1 38 64
M  V30 103 1 39 60
M  V30 104 1 40 96
M  V30 105 1 42 84
M  V30 106 1 43 69
M  V30 107 1 44 66
M  V30 108 1 45 81
M  V30 END BOND
M  V30 END CTAB
M  END

$$$$
