
     RDKit          3D

  0  0  0  0  0  0  0  0  0  0999 V3000
M  V30 BEGIN CTAB
M  V30 COUNTS 99 108 0 0 0
M  V30 BEGIN ATOM
M  V30 1 Pd -2.7074 -3.1521 0.7768 0
M  V30 2 Pb -3.3410 -2.9581 0.0297 0
M  V30 3 Pb -1.9216 -3.0481 0.1649 0
M  V30 4 Pb -3.4944 -3.1521 1.3917 0
M  V30 5 Pb -2.0703 -3.2453 1.5398 0
M  V30 6 Pd 5.6199 -4.7099 -4.7440 0
M  V30 7 Pb 5.8652 -3.7493 -4.6153 0
M  V30 8 Pb 5.3102 -5.6590 -4.7497 0
M  V30 9 Pb 6.3399 -4.9516 -4.1014 0
M  V30 10 Pb 4.7939 -4.4635 -5.2476 0
M  V30 11 Pd -1.1747 5.5924 -1.5198 0
M  V30 12 Pb -1.5359 4.9251 -2.1672 0
M  V30 13 Pb -0.2452 5.2831 -1.7240 0
M  V30 14 Pb -0.7937 6.2618 -0.8798 0
M  V30 15 Pb -2.1160 5.8770 -1.3144 0
M  V30 16 Pd -0.4269 5.5830 3.6919 0
M  V30 17 Pb -0.1184 6.2588 3.0246 0
M  V30 18 Pb -0.7949 4.8870 4.3074 0
M  V30 19 Pb 0.4851 5.1752 3.7447 0
M  V30 20 Pb -1.3581 5.9357 3.6142 0
M  V30 21 Pd 4.9323 1.1270 0.2930 0
M  V30 22 Pb 5.2885 0.6659 -0.5238 0
M  V30 23 Pb 4.4927 1.7957 -0.3081 0
M  V30 24 Pb 4.6043 1.6376 1.0893 0
M  V30 25 Pb 5.3703 0.4718 0.9149 0
M  V30 26 Pd -6.6943 2.2203 3.4842 0
M  V30 27 Pb -5.9562 2.1554 4.1549 0
M  V30 28 Pb -7.3575 2.3117 2.7421 0
M  V30 29 Pb -6.7905 1.2259 3.4973 0
M  V30 30 Pb -6.5084 3.2001 3.4440 0
M  V30 31 Pd -5.7813 2.9620 -1.7046 0
M  V30 32 Pb -5.8856 1.9885 -1.9035 0
M  V30 33 Pb -6.5988 2.9345 -1.1236 0
M  V30 34 Pb -5.6022 3.9213 -1.4719 0
M  V30 35 Pb -4.9789 2.9733 -2.2979 0
M  V30 36 Pd 4.5338 -4.1748 2.0821 0
M  V30 37 Pb 5.0484 -3.3491 2.3206 0
M  V30 38 Pb 3.9969 -4.9723 1.7959 0
M  V30 39 Pb 5.3173 -4.4848 1.5480 0
M  V30 40 Pb 3.7316 -3.8864 2.6002 0
M  V30 41 Pd 1.6681 -5.5444 -2.3739 0
M  V30 42 Pb 2.1648 -6.3181 -2.7679 0
M  V30 43 Pb 1.2044 -4.7331 -2.0145 0
M  V30 44 Pb 1.7907 -5.9281 -1.4552 0
M  V30 45 Pb 1.6217 -5.1487 -3.2936 0
M  V30 46 Ag 6.0365 -3.0418 -4.4334 0
M  V30 47 Fe 5.7972 -1.3244 -2.8070 0
M  V30 48 Ag 5.5518 0.3825 -1.1704 0
M  V30 49 Ag -3.8346 -2.7330 -0.4861 0
M  V30 50 Fe -4.9344 -0.8143 -1.3475 0
M  V30 51 Ag -5.8906 1.2495 -2.0252 0
M  V30 52 Ag 1.1536 4.8354 3.7752 0
M  V30 53 Fe 2.7710 3.4411 2.7335 0
M  V30 54 Ag 4.3783 2.0449 1.6786 0
M  V30 55 Ag -1.1611 4.3750 4.7138 0
M  V30 56 Fe -3.2138 3.1852 4.7979 0
M  V30 57 Ag -5.3485 2.1668 4.5932 0
M  V30 58 Ag -2.0823 6.1164 3.5595 0
M  V30 59 Fe -4.2551 5.1672 3.4769 0
M  V30 60 Ag -6.2641 3.9066 3.4212 0
M  V30 61 Ag 6.7666 -5.0967 -3.5094 0
M  V30 62 Fe 6.5296 -4.9736 -1.1559 0
M  V30 63 Ag 5.8799 -4.7009 1.1061 0
M  V30 64 Ag -4.1047 -3.0592 1.8154 0
M  V30 65 Fe -5.5306 -1.3917 2.7208 0
M  V30 66 Ag -6.7725 0.4771 3.4949 0
M  V30 67 Ag -1.5545 -3.2560 2.0821 0
M  V30 68 Fe 0.7478 -3.4799 2.6100 0
M  V30 69 Ag 3.0831 -3.7367 2.9411 0
M  V30 70 Ag 0.4499 5.0427 -1.8734 0
M  V30 71 Fe 2.3089 3.6722 -1.3163 0
M  V30 72 Ag 4.1670 2.3011 -0.7579 0
M  V30 73 Ba 5.6952 0.0203 1.4239 0
M  V30 74 Ga 5.5564 -1.3637 1.9267 0
M  V30 75 Ba 5.4608 -2.7374 2.4663 0
M  V30 76 Ba -2.8324 6.0699 -1.1757 0
M  V30 77 Ga -4.1311 5.3604 -1.2320 0
M  V30 78 Ba -5.4181 4.6303 -1.2954 0
M  V30 79 Ba 4.1118 -4.3183 -5.5200 0
M  V30 80 Ga 2.8325 -4.5550 -4.8235 0
M  V30 81 Ba 1.6550 -4.8561 -3.9859 0
M  V30 82 Ba 5.0114 -6.3406 -4.6728 0
M  V30 83 Ga 3.7985 -6.6876 -3.9116 0
M  V30 84 Ba 2.5718 -6.8469 -3.1106 0
M  V30 85 Ba -1.8165 4.4263 -2.6479 0
M  V30 86 Ga -3.0914 3.6940 -2.7108 0
M  V30 87 Ba -4.3771 2.9788 -2.7421 0
M  V30 88 Ba -0.4719 6.7509 -0.4087 0
M  V30 89 Ga -0.1961 6.7725 1.0404 0
M  V30 90 Ba 0.0593 6.7555 2.4932 0
M  V30 91 Ba 3.5553 -5.5468 1.5905 0
M  V30 92 Ga 2.7416 -5.8831 0.4015 0
M  V30 93 Ba 1.9227 -6.2341 -0.7797 0
M  V30 94 Ba -1.3271 -2.8930 -0.2675 0
M  V30 95 Ga -0.2428 -3.5599 -1.0155 0
M  V30 96 Ba 0.8911 -4.0842 -1.8025 0
M  V30 97 Ba -7.8097 2.4125 2.1527 0
M  V30 98 Ga -7.5287 2.6505 0.7221 0
M  V30 99 Ba -7.2224 2.8880 -0.7035 0
M  V30 END ATOM
M  V30 BEGIN BOND
M  V30 1 1 1 2
M  V30 2 1 1 3
M  V30 3 1 1 4
M  V30 4 1 1 5
M  V30 5 1 6 7
M  V30 6 1 6 8
M  V30 7 1 6 9
M  V30 8 1 6 10
M  V30 9 1 11 12
M  V30 10 1 11 13
M  V30 11 1 11 14
M  V30 12 1 11 15
M  V30 13 1 16 17
M  V30 14 1 16 18
M  V30 15 1 16 19
M  V30 16 1 16 20
M  V30 17 1 21 22
M  V30 18 1 21 23
M  V30 19 1 21 24
M  V30 20 1 21 25
M  V30 21 1 26 27
M  V30 22 1 26 28
M  V30 23 1 26 29
M  V30 24 1 26 30
M  V30 25 1 31 32
M  V30 26 1 31 33
M  V30 27 1 31 34
M  V30 28 1 31 35
M  V30 29 1 36 37
M  V30 30 1 36 38
M  V30 31 1 36 39
M  V30 32 1 36 40
M  V30 33 1 41 42
M  V30 34 1 41 43
M  V30 35 1 41 44
M  V30 36 1 41 45
M  V30 37 1 46 47
M  V30 38 1 47 48
M  V30 39 1 49 50
M  V30 40 1 50 51
M  V30 41 1 52 53
M  V30 42 1 53 54
M  V30 43 1 55 56
M  V30 44 1 56 57
M  V30 45 1 58 59
M  V30 46 1 59 60
M  V30 47 1 61 62
M  V30 48 1 62 63
M  V30 49 1 64 65
M  V30 50 1 65 66
M  V30 51 1 67 68
M  V30 52 1 68 69
M  V30 53 1 70 71
M  V30 54 1 71 72
M  V30 55 1 73 74
M  V30 56 1 74 75
M  V30 57 1 76 77
M  V30 58 1 77 78
M  V30 59 1 79 80
M  V30 60 1 80 81
M  V30 61 1 82 83
M  V30 62 1 83 84
M  V30 63 1 85 86
M  V30 64 1 86 87
M  V30 65 1 88 89
M  V30 66 1 89 90
M  V30 67 1 91 92
M  V30 68 1 92 93
M  V30 69 1 94 95
M  V30 70 1 95 96
M  V30 71 1 97 98
M  V30 72 1 98 99
M  V30 73 1 2 49
M  V30 74 1 3 94
M  V30 75 1 4 64
M  V30 76 1 5 67
M  V30 77 1 7 46
M  V30 78 1 8 82
M  V30 79 1 9 61
M  V30 80 1 10 79
M  V30 81 1 12 85
M  V30 82 1 13 70
M  V30 83 1 14 88
M  V30 84 1 15 76
M  V30 85 1 17 90
M  V30 86 1 18 55
M  V30 87 1 19 52
M  V30 88 1 20 58
M  V30 89 1 22 48
M  V30 90 1 23 72
M  V30 91 1 24 54
M  V30 92 1 25 73
M  V30 93 1 27 57
M  V30 94 1 28 97
M  V30 95 1 29 66
M  V30 96 1 30 60
M  V30 97 1 32 51
M  V30 98 1 33 99
M  V30 99 1 34 78
M  V30 100 1 35 87
M  V30 101 1 37 75
M  V30 102 1 38 91
M  V30 103 1 39 63
M  V30 104 1 40 69
M  V30 105 1 42 84
M  V30 106 1 43 96
M  V30 107 1 44 93
M  V30 108 1 45 81
M  V30 END BOND
M  V30 END CTAB
M  END

$$$$
