
     RDKit          3D

  0  0  0  0  0  0  0  0  0  0999 V3000
M  V30 BEGIN CTAB
M  V30 COUNTS 99 108 0 0 0
M  V30 BEGIN ATOM
M  V30 1 Pd -2.6360 -8.3764 0.9375 0
M  V30 2 Pb -2.6767 -7.4251 0.6260 0
M  V30 3 Pb -2.5930 -9.3376 1.2001 0
M  V30 4 Pb -1.6432 -8.3423 1.0611 0
M  V30 5 Pb -3.5013 -8.5840 0.4788 0
M  V30 6 Pd -0.8076 -11.7253 -3.5795 0
M  V30 7 Pb -0.6921 -10.9132 -4.1474 0
M  V30 8 Pb -1.7961 -11.6980 -3.7359 0
M  V30 9 Pb -0.9620 -12.4248 -2.8878 0
M  V30 10 Pb 0.0559 -11.5017 -3.1243 0
M  V30 11 Pd 1.0549 5.3320 2.8053 0
M  V30 12 Pb 1.1752 5.2970 1.8142 0
M  V30 13 Pb 0.2716 5.1660 2.2080 0
M  V30 14 Pb 1.4402 5.4332 3.7214 0
M  V30 15 Pb 0.8793 6.3116 2.7158 0
M  V30 16 Pd -4.8040 5.8554 -2.8361 0
M  V30 17 Pb -4.2106 5.5793 -3.5943 0
M  V30 18 Pb -5.4426 6.1152 -2.1201 0
M  V30 19 Pb -4.8552 4.9252 -2.4705 0
M  V30 20 Pb -4.5749 6.8342 -2.9196 0
M  V30 21 Pd -3.3145 7.9960 1.1905 0
M  V30 22 Pb -3.3583 8.5839 0.3718 0
M  V30 23 Pb -4.2745 7.7904 1.0351 0
M  V30 24 Pb -3.2872 7.1772 1.7652 0
M  V30 25 Pb -2.3654 8.2386 1.3995 0
M  V30 26 Pd 0.4784 -4.6352 -1.8698 0
M  V30 27 Pb 0.8399 -4.4536 -0.9539 0
M  V30 28 Pb 0.2700 -5.2590 -2.6249 0
M  V30 29 Pb -0.4359 -4.7359 -1.4722 0
M  V30 30 Pb 0.0671 -4.2539 -2.6981 0
M  V30 31 Pd -1.2295 1.9708 -3.6068 0
M  V30 32 Pb -1.6198 2.6229 -4.2551 0
M  V30 33 Pb -0.6363 2.6943 -3.2580 0
M  V30 34 Pb -1.5410 2.5560 -2.8601 0
M  V30 35 Pb -1.3692 1.1789 -4.1976 0
M  V30 36 Pd 5.9302 4.2565 4.8973 0
M  V30 37 Pb 5.6751 4.4423 3.9454 0
M  V30 38 Pb 5.0348 4.5347 5.2475 0
M  V30 39 Pb 6.1037 3.6450 5.6730 0
M  V30 40 Pb 6.8375 4.0284 4.5670 0
M  V30 41 Pd 5.9501 -1.2429 2.3530 0
M  V30 42 Pb 6.8516 -0.8300 2.3192 0
M  V30 43 Pb 6.1219 -1.4377 3.3216 0
M  V30 44 Pb 5.0639 -1.7085 2.3591 0
M  V30 45 Pb 5.6920 -0.6404 1.5940 0
M  V30 46 Ag -0.2368 -3.8979 -3.2842 0
M  V30 47 Fe -0.8889 -1.7571 -4.0750 0
M  V30 48 Ag -1.4158 0.5114 -4.5314 0
M  V30 49 Ag -0.9148 -8.4871 0.9374 0
M  V30 50 Fe 0.1545 -9.7938 -0.7409 0
M  V30 51 Ag 0.5326 -11.1929 -2.6296 0
M  V30 52 Ag -4.7922 4.4012 -1.9400 0
M  V30 53 Fe -4.0870 4.8963 0.2674 0
M  V30 54 Ag -3.3673 6.4471 1.9083 0
M  V30 55 Ag 1.2439 5.2693 1.0689 0
M  V30 56 Fe 0.5636 4.2780 -0.9766 0
M  V30 57 Ag -0.1905 3.2163 -2.9600 0
M  V30 58 Ag -0.6151 -10.2416 -4.4672 0
M  V30 59 Fe -0.2388 -7.9600 -3.9282 0
M  V30 60 Ag 0.1440 -5.7349 -3.1926 0
M  V30 61 Ag 1.1011 -4.2720 -0.2731 0
M  V30 62 Fe 2.7488 -3.1908 1.0550 0
M  V30 63 Ag 4.4209 -2.0965 2.3413 0
M  V30 64 Ag 7.4608 3.7507 4.2839 0
M  V30 65 Fe 7.9402 1.7069 3.2206 0
M  V30 66 Ag 7.4713 -0.4288 2.3504 0
M  V30 67 Ag 6.2148 2.9951 6.0449 0
M  V30 68 Fe 6.2784 0.7172 5.3337 0
M  V30 69 Ag 6.2302 -1.2999 4.0581 0
M  V30 70 Ag -3.9777 -8.8713 -0.0286 0
M  V30 71 Fe -3.5948 -10.2333 -1.9429 0
M  V30 72 Ag -2.5216 -11.5279 -3.6277 0
M  V30 73 Ag 5.5136 4.2990 3.2198 0
M  V30 74 Fe 5.4375 2.2793 1.9497 0
M  V30 75 Ag 5.5274 0.0042 1.2328 0
M  V30 76 Ag -2.5247 -10.0769 1.2603 0
M  V30 77 Fe -1.8683 -11.7902 -0.2287 0
M  V30 78 Ag -1.1280 -12.7645 -2.2490 0
M  V30 79 Ag -0.3017 5.0423 1.7424 0
M  V30 80 Fe -1.0789 4.0326 -0.2592 0
M  V30 81 Ag -1.7457 2.9802 -2.2785 0
M  V30 82 Ba -3.8037 5.3539 -4.1849 0
M  V30 83 Ga -2.8526 4.2580 -4.4538 0
M  V30 84 Ba -1.9029 3.1554 -4.6995 0
M  V30 85 Ba -2.7356 -6.7191 0.3747 0
M  V30 86 Ga -1.9042 -5.7687 -0.3925 0
M  V30 87 Ba -1.1170 -4.7784 -1.1560 0
M  V30 88 Ba 1.7364 5.4661 4.4085 0
M  V30 89 Ga 3.0583 5.1244 4.9668 0
M  V30 90 Ba 4.3809 4.7812 5.5223 0
M  V30 91 Ba 0.7282 7.0357 2.5952 0
M  V30 92 Ga -0.4668 7.7448 2.0976 0
M  V30 93 Ba -1.6689 8.4405 1.5979 0
M  V30 94 Ba -5.8917 6.3221 -1.5649 0
M  V30 95 Ga -5.5286 6.9758 -0.3070 0
M  V30 96 Ba -4.9837 7.6232 0.8868 0
M  V30 97 Ba -4.3685 7.5622 -2.8272 0
M  V30 98 Ga -3.8992 8.2783 -1.6016 0
M  V30 99 Ba -3.4416 8.8954 -0.3190 0
M  V30 END ATOM
M  V30 BEGIN BOND
M  V30 1 1 1 2
M  V30 2 1 1 3
M  V30 3 1 1 4
M  V30 4 1 1 5
M  V30 5 1 6 7
M  V30 6 1 6 8
M  V30 7 1 6 9
M  V30 8 1 6 10
M  V30 9 1 11 12
M  V30 10 1 11 13
M  V30 11 1 11 14
M  V30 12 1 11 15
M  V30 13 1 16 17
M  V30 14 1 16 18
M  V30 15 1 16 19
M  V30 16 1 16 20
M  V30 17 1 21 22
M  V30 18 1 21 23
M  V30 19 1 21 24
M  V30 20 1 21 25
M  V30 21 1 26 27
M  V30 22 1 26 28
M  V30 23 1 26 29
M  V30 24 1 26 30
M  V30 25 1 31 32
M  V30 26 1 31 33
M  V30 27 1 31 34
M  V30 28 1 31 35
M  V30 29 1 36 37
M  V30 30 1 36 38
M  V30 31 1 36 39
M  V30 32 1 36 40
M  V30 33 1 41 42
M  V30 34 1 41 43
M  V30 35 1 41 44
M  V30 36 1 41 45
M  V30 37 1 46 47
M  V30 38 1 47 48
M  V30 39 1 49 50
M  V30 40 1 50 51
M  V30 41 1 52 53
M  V30 42 1 53 54
M  V30 43 1 55 56
M  V30 44 1 56 57
M  V30 45 1 58 59
M  V30 46 1 59 60
M  V30 47 1 61 62
M  V30 48 1 62 63
M  V30 49 1 64 65
M  V30 50 1 65 66
M  V30 51 1 67 68
M  V30 52 1 68 69
M  V30 53 1 70 71
M  V30 54 1 71 72
M  V30 55 1 73 74
M  V30 56 1 74 75
M  V30 57 1 76 77
M  V30 58 1 77 78
M  V30 59 1 79 80
M  V30 60 1 80 81
M  V30 61 1 82 83
M  V30 62 1 83 84
M  V30 63 1 85 86
M  V30 64 1 86 87
M  V30 65 1 88 89
M  V30 66 1 89 90
M  V30 67 1 91 92
M  V30 68 1 92 93
M  V30 69 1 94 95
M  V30 70 1 95 96
M  V30 71 1 97 98
M  V30 72 1 98 99
M  V30 73 1 2 85
M  V30 74 1 3 76
M  V30 75 1 4 49
M  V30 76 1 5 70
M  V30 77 1 7 58
M  V30 78 1 8 72
M  V30 79 1 9 78
M  V30 80 1 10 51
M  V30 81 1 12 55
M  V30 82 1 13 79
M  V30 83 1 14 88
M  V30 84 1 15 91
M  V30 85 1 17 82
M  V30 86 1 18 94
M  V30 87 1 19 52
M  V30 88 1 20 97
M  V30 89 1 22 99
M  V30 90 1 23 96
M  V30 91 1 24 54
M  V30 92 1 25 93
M  V30 93 1 27 61
M  V30 94 1 28 60
M  V30 95 1 29 87
M  V30 96 1 30 46
M  V30 97 1 32 84
M  V30 98 1 33 57
M  V30 99 1 34 81
M  V30 100 1 35 48
M  V30 101 1 37 73
M  V30 102 1 38 90
M  V30 103 1 39 67
M  V30 104 1 40 64
M  V30 105 1 42 66
M  V30 106 1 43 69
M  V30 107 1 44 63
M  V30 108 1 45 75
M  V30 END BOND
M  V30 END CTAB
M  END

$$$$
