
     RDKit          3D

  0  0  0  0  0  0  0  0  0  0999 V3000
M  V30 BEGIN CTAB
M  V30 COUNTS 99 108 0 0 0
M  V30 BEGIN ATOM
M  V30 1 Pd -1.7820 8.0902 0.9074 0
M  V30 2 Pb -0.8207 8.0967 1.1740 0
M  V30 3 Pb -1.5321 8.0327 -0.0592 0
M  V30 4 Pb -2.7493 7.9600 0.6877 0
M  V30 5 Pb -2.0241 8.0771 1.8743 0
M  V30 6 Pd -0.4200 -6.4498 4.1502 0
M  V30 7 Pb -0.5223 -5.6521 4.7359 0
M  V30 8 Pb 0.5799 -6.3722 4.1421 0
M  V30 9 Pb -0.3138 -7.2267 3.5383 0
M  V30 10 Pb -1.4179 -6.4379 3.9730 0
M  V30 11 Pd -4.4272 -3.3089 1.3537 0
M  V30 12 Pb -4.1921 -2.8258 2.1912 0
M  V30 13 Pb -4.5772 -2.4279 0.9097 0
M  V30 14 Pb -4.2510 -4.1827 1.8430 0
M  V30 15 Pb -4.6538 -3.7825 0.4992 0
M  V30 16 Pd -3.8383 4.1853 2.5863 0
M  V30 17 Pb -4.0772 3.4527 1.9502 0
M  V30 18 Pb -4.4069 4.8283 2.0711 0
M  V30 19 Pb -3.6065 4.9298 3.2092 0
M  V30 20 Pb -3.1705 3.5940 3.0416 0
M  V30 21 Pd 3.6309 3.0936 2.7056 0
M  V30 22 Pb 3.9820 2.1536 2.6634 0
M  V30 23 Pb 2.7637 2.7887 3.1068 0
M  V30 24 Pb 3.3150 4.0426 2.6931 0
M  V30 25 Pb 4.4721 3.4023 2.2712 0
M  V30 26 Pd -2.6879 -3.2960 -3.9463 0
M  V30 27 Pb -3.3990 -3.7206 -3.3787 0
M  V30 28 Pb -1.9690 -2.8842 -4.4947 0
M  V30 29 Pb -2.2290 -4.1709 -4.0969 0
M  V30 30 Pb -3.0604 -2.3689 -3.8319 0
M  V30 31 Pd 3.3916 -6.5782 -1.6163 0
M  V30 32 Pb 3.7821 -6.4261 -0.7055 0
M  V30 33 Pb 2.8932 -7.3419 -1.2188 0
M  V30 34 Pb 3.8504 -5.7763 -2.0040 0
M  V30 35 Pb 2.8384 -6.6928 -2.4391 0
M  V30 36 Pd 0.2284 3.3420 -4.8440 0
M  V30 37 Pb 0.4085 2.4316 -5.1984 0
M  V30 38 Pb 0.0384 4.2643 -4.5035 0
M  V30 39 Pb -0.7039 3.0238 -4.6401 0
M  V30 40 Pb 1.1987 3.5490 -4.9687 0
M  V30 41 Pd 5.8996 0.8799 -1.2605 0
M  V30 42 Pb 6.1447 1.7300 -0.8005 0
M  V30 43 Pb 5.8393 1.3807 -2.1244 0
M  V30 44 Pb 5.8187 0.4446 -0.3617 0
M  V30 45 Pb 5.7113 0.0120 -1.7253 0
M  V30 46 Ag -2.6146 3.1919 3.3491 0
M  V30 47 Fe -0.2646 2.8349 3.4123 0
M  V30 48 Ag 2.0987 2.5725 3.3864 0
M  V30 49 Ag -1.3391 7.9497 -0.7793 0
M  V30 50 Fe -0.7202 6.4687 -2.5311 0
M  V30 51 Ag -0.1038 4.9611 -4.2608 0
M  V30 52 Ag -0.1608 -7.7521 3.0346 0
M  V30 53 Fe 1.1021 -8.0293 1.0529 0
M  V30 54 Ag 2.4800 -7.8472 -0.8619 0
M  V30 55 Ag -0.7243 -5.0136 5.0520 0
M  V30 56 Fe -2.3059 -3.4312 4.3138 0
M  V30 57 Ag -3.9231 -2.5689 2.8327 0
M  V30 58 Ag -4.6688 -1.7443 0.6208 0
M  V30 59 Fe -4.4816 0.5908 1.0008 0
M  V30 60 Ag -4.2614 2.9063 1.4719 0
M  V30 61 Ag 4.1667 -5.1661 -2.3091 0
M  V30 62 Fe 4.8785 -2.9021 -2.1671 0
M  V30 63 Ag 5.6094 -0.6413 -2.0843 0
M  V30 64 Ag -0.1200 8.0179 1.4234 0
M  V30 65 Fe 1.5354 6.4321 2.0410 0
M  V30 66 Ag 3.1173 4.7642 2.6351 0
M  V30 67 Ag -3.2451 -1.6357 -3.8029 0
M  V30 68 Fe -2.4026 0.5728 -4.1090 0
M  V30 69 Ag -1.3576 2.6854 -4.4646 0
M  V30 70 Ag -1.4314 -2.5415 -4.8767 0
M  V30 71 Fe -0.3756 -0.4581 -5.2546 0
M  V30 72 Ag 0.4921 1.7350 -5.4424 0
M  V30 73 Ag 1.3145 -6.3096 3.9857 0
M  V30 74 Fe 2.7865 -6.2987 2.1156 0
M  V30 75 Ag 3.9297 -6.3424 0.0286 0
M  V30 76 Ag -1.7877 -4.7583 -4.2470 0
M  V30 77 Fe 0.2475 -5.8525 -3.7012 0
M  V30 78 Ag 2.3105 -6.7680 -2.9645 0
M  V30 79 Ag 1.9467 3.5888 -5.0123 0
M  V30 80 Fe 3.9211 2.7717 -3.9742 0
M  V30 81 Ag 5.6971 1.8044 -2.7275 0
M  V30 82 Ba -3.4710 7.7806 0.5857 0
M  V30 83 Ga -4.1889 6.5929 1.0901 0
M  V30 84 Ba -4.7549 5.3566 1.6660 0
M  V30 85 Ba -2.1589 -6.4310 3.7856 0
M  V30 86 Ga -3.1154 -5.5880 3.0056 0
M  V30 87 Ba -4.1556 -4.8246 2.2515 0
M  V30 88 Ba 5.0849 3.6165 1.9043 0
M  V30 89 Ga 5.7467 3.0216 0.7352 0
M  V30 90 Ba 6.3349 2.3520 -0.4329 0
M  V30 91 Ba -2.2145 7.9846 2.5901 0
M  V30 92 Ga -2.8247 6.7934 3.1971 0
M  V30 93 Ba -3.4313 5.5253 3.6260 0
M  V30 94 Ba -4.8355 -4.1217 -0.1481 0
M  V30 95 Ga -4.3637 -4.0768 -1.5498 0
M  V30 96 Ba -3.9258 -4.0643 -2.9631 0
M  V30 97 Ba 4.2877 1.4670 2.5953 0
M  V30 98 Ga 4.9952 0.7883 1.4858 0
M  V30 99 Ba 5.6902 0.1773 0.3300 0
M  V30 END ATOM
M  V30 BEGIN BOND
M  V30 1 1 1 2
M  V30 2 1 1 3
M  V30 3 1 1 4
M  V30 4 1 1 5
M  V30 5 1 6 7
M  V30 6 1 6 8
M  V30 7 1 6 9
M  V30 8 1 6 10
M  V30 9 1 11 12
M  V30 10 1 11 13
M  V30 11 1 11 14
M  V30 12 1 11 15
M  V30 13 1 16 17
M  V30 14 1 16 18
M  V30 15 1 16 19
M  V30 16 1 16 20
M  V30 17 1 21 22
M  V30 18 1 21 23
M  V30 19 1 21 24
M  V30 20 1 21 25
M  V30 21 1 26 27
M  V30 22 1 26 28
M  V30 23 1 26 29
M  V30 24 1 26 30
M  V30 25 1 31 32
M  V30 26 1 31 33
M  V30 27 1 31 34
M  V30 28 1 31 35
M  V30 29 1 36 37
M  V30 30 1 36 38
M  V30 31 1 36 39
M  V30 32 1 36 40
M  V30 33 1 41 42
M  V30 34 1 41 43
M  V30 35 1 41 44
M  V30 36 1 41 45
M  V30 37 1 46 47
M  V30 38 1 47 48
M  V30 39 1 49 50
M  V30 40 1 50 51
M  V30 41 1 52 53
M  V30 42 1 53 54
M  V30 43 1 55 56
M  V30 44 1 56 57
M  V30 45 1 58 59
M  V30 46 1 59 60
M  V30 47 1 61 62
M  V30 48 1 62 63
M  V30 49 1 64 65
M  V30 50 1 65 66
M  V30 51 1 67 68
M  V30 52 1 68 69
M  V30 53 1 70 71
M  V30 54 1 71 72
M  V30 55 1 73 74
M  V30 56 1 74 75
M  V30 57 1 76 77
M  V30 58 1 77 78
M  V30 59 1 79 80
M  V30 60 1 80 81
M  V30 61 1 82 83
M  V30 62 1 83 84
M  V30 63 1 85 86
M  V30 64 1 86 87
M  V30 65 1 88 89
M  V30 66 1 89 90
M  V30 67 1 91 92
M  V30 68 1 92 93
M  V30 69 1 94 95
M  V30 70 1 95 96
M  V30 71 1 97 98
M  V30 72 1 98 99
M  V30 73 1 2 64
M  V30 74 1 3 49
M  V30 75 1 4 82
M  V30 76 1 5 91
M  V30 77 1 7 55
M  V30 78 1 8 73
M  V30 79 1 9 52
M  V30 80 1 10 85
M  V30 81 1 12 57
M  V30 82 1 13 58
M  V30 83 1 14 87
M  V30 84 1 15 94
M  V30 85 1 17 60
M  V30 86 1 18 84
M  V30 87 1 19 93
M  V30 88 1 20 46
M  V30 89 1 22 97
M  V30 90 1 23 48
M  V30 91 1 24 66
M  V30 92 1 25 88
M  V30 93 1 27 96
M  V30 94 1 28 70
M  V30 95 1 29 76
M  V30 96 1 30 67
M  V30 97 1 32 75
M  V30 98 1 33 54
M  V30 99 1 34 61
M  V30 100 1 35 78
M  V30 101 1 37 72
M  V30 102 1 38 51
M  V30 103 1 39 69
M  V30 104 1 40 79
M  V30 105 1 42 90
M  V30 106 1 43 81
M  V30 107 1 44 99
M  V30 108 1 45 63
M  V30 END BOND
M  V30 END CTAB
M  END

$$$$
