
     RDKit          3D

  0  0  0  0  0  0  0  0  0  0999 V3000
M  V30 BEGIN CTAB
M  V30 COUNTS 99 108 0 0 0
M  V30 BEGIN ATOM
M  V30 1 Pd 1.9584 -6.1063 0.0454 0
M  V30 2 Pb 2.8007 -5.8904 0.5672 0
M  V30 3 Pb 1.1197 -6.0750 -0.5196 0
M  V30 4 Pb 2.3984 -6.4038 -0.7779 0
M  V30 5 Pb 1.4800 -6.0520 0.8871 0
M  V30 6 Pd -4.4707 1.7990 -3.7422 0
M  V30 7 Pb -4.7496 2.7505 -3.4566 0
M  V30 8 Pb -4.3538 2.0822 -4.6957 0
M  V30 9 Pb -4.1476 0.8703 -3.9059 0
M  V30 10 Pb -4.6386 1.5740 -2.8028 0
M  V30 11 Pd 4.3889 2.8020 0.5311 0
M  V30 12 Pb 5.0469 2.0793 0.4253 0
M  V30 13 Pb 4.3079 2.9064 -0.4413 0
M  V30 14 Pb 4.4413 2.6598 1.5083 0
M  V30 15 Pb 3.6407 3.4937 0.6393 0
M  V30 16 Pd 4.4977 -1.6845 3.1383 0
M  V30 17 Pb 5.0691 -1.3625 2.3917 0
M  V30 18 Pb 4.4684 -2.6339 2.7504 0
M  V30 19 Pb 4.5607 -0.7630 3.5012 0
M  V30 20 Pb 3.9253 -1.9216 3.9406 0
M  V30 21 Pd -4.7542 1.7851 3.5942 0
M  V30 22 Pb -4.1107 1.8310 4.2988 0
M  V30 23 Pb -4.2729 2.5659 3.1798 0
M  V30 24 Pb -5.0297 0.9017 3.9273 0
M  V30 25 Pb -5.4682 1.7060 2.9018 0
M  V30 26 Pd -1.4010 4.6604 -0.7931 0
M  V30 27 Pb -1.8205 4.3397 0.0898 0
M  V30 28 Pb -0.9892 5.1627 -1.5671 0
M  V30 29 Pb -2.3146 4.8085 -1.1839 0
M  V30 30 Pb -0.4531 4.6152 -0.3475 0
M  V30 31 Pd -0.5082 -2.9643 -4.3584 0
M  V30 32 Pb -0.2831 -2.2605 -5.0040 0
M  V30 33 Pb -0.6648 -3.6786 -3.6170 0
M  V30 34 Pb 0.1108 -3.6624 -4.7432 0
M  V30 35 Pb -1.2845 -2.3784 -4.1341 0
M  V30 36 Pd -0.6307 -3.2412 6.2277 0
M  V30 37 Pb 0.3442 -3.0423 6.0999 0
M  V30 38 Pb -0.5312 -4.1904 5.9970 0
M  V30 39 Pb -1.6263 -3.3037 6.1471 0
M  V30 40 Pb -0.7985 -2.3161 6.4456 0
M  V30 41 Pd 1.0246 2.7612 -4.5023 0
M  V30 42 Pb 1.6737 2.6638 -3.7371 0
M  V30 43 Pb 0.5460 2.8621 -5.3874 0
M  V30 44 Pb 0.8923 1.7611 -4.7042 0
M  V30 45 Pb 1.0332 3.7430 -4.4100 0
M  V30 46 Ag 2.4977 -6.6095 -1.4713 0
M  V30 47 Fe 1.3826 -5.8185 -3.3741 0
M  V30 48 Ag 0.5136 -4.2592 -4.8936 0
M  V30 49 Ag 1.1449 -6.1508 1.5373 0
M  V30 50 Fe 0.5673 -5.7199 3.7752 0
M  V30 51 Ag -0.4761 -4.8615 5.6934 0
M  V30 52 Ag -3.6334 1.7810 4.8603 0
M  V30 53 Fe -2.4325 0.1379 6.0156 0
M  V30 54 Ag -0.9815 -1.6217 6.5902 0
M  V30 55 Ag -5.1067 0.1892 4.1620 0
M  V30 56 Fe -3.9527 -1.6379 5.1657 0
M  V30 57 Ag -2.3686 -3.2312 5.9826 0
M  V30 58 Ag -4.1803 2.3124 -5.3955 0
M  V30 59 Fe -2.1754 3.0219 -6.4234 0
M  V30 60 Ag 0.1403 2.9642 -6.0046 0
M  V30 61 Ag -4.8163 1.5826 -2.0935 0
M  V30 62 Fe -5.6728 1.9737 0.0472 0
M  V30 63 Ag -5.9300 1.6366 2.3534 0
M  V30 64 Ba -4.8812 3.4635 -3.1986 0
M  V30 65 Ga -4.0392 4.3299 -2.3227 0
M  V30 66 Ba -3.0216 4.9851 -1.4773 0
M  V30 67 Ba 0.4740 -5.9529 -0.9436 0
M  V30 68 Ga -0.0348 -5.0803 -2.0695 0
M  V30 69 Ba -0.7703 -4.2409 -3.0995 0
M  V30 70 Ba -3.7808 3.0962 2.9515 0
M  V30 71 Ga -2.9733 3.5851 1.7974 0
M  V30 72 Ba -2.1026 4.2970 0.8009 0
M  V30 73 Ba 4.2272 2.9065 -1.1580 0
M  V30 74 Ga 3.0972 2.7910 -2.0958 0
M  V30 75 Ba 2.3107 2.7493 -3.3295 0
M  V30 76 Ba 4.5201 2.5111 2.2488 0
M  V30 77 Ga 4.6163 1.2544 3.0253 0
M  V30 78 Ba 4.6142 -0.0454 3.7381 0
M  V30 79 Ba -0.6721 5.5750 -2.1258 0
M  V30 80 Ga 0.1738 5.1694 -3.2671 0
M  V30 81 Ba 0.9457 4.5020 -4.3174 0
M  V30 82 Ba 3.0532 3.9649 0.7477 0
M  V30 83 Ga 1.6366 4.2543 0.3304 0
M  V30 84 Ba 0.2179 4.7042 0.0490 0
M  V30 85 Ba 3.4083 -5.6825 0.9960 0
M  V30 86 Ga 3.8712 -4.5045 1.7941 0
M  V30 87 Ba 4.5184 -3.3623 2.5057 0
M  V30 88 Ba 3.5439 -2.0529 4.5932 0
M  V30 89 Ga 2.2675 -2.5475 5.2056 0
M  V30 90 Ba 1.0726 -2.8172 6.0544 0
M  V30 91 Ba 5.5315 1.4930 0.3834 0
M  V30 92 Ga 5.5564 0.2292 1.1372 0
M  V30 93 Ba 5.5191 -1.0664 1.8605 0
M  V30 94 Ba -3.9437 0.1394 -3.9853 0
M  V30 95 Ga -2.7616 -0.7637 -4.0761 0
M  V30 96 Ba -1.9669 -2.0245 -4.0896 0
M  V30 97 Ba -0.1234 -1.6614 -5.4260 0
M  V30 98 Ga 0.2293 -0.2680 -5.0989 0
M  V30 99 Ba 0.7193 1.1265 -5.0693 0
M  V30 END ATOM
M  V30 BEGIN BOND
M  V30 1 1 1 2
M  V30 2 1 1 3
M  V30 3 1 1 4
M  V30 4 1 1 5
M  V30 5 1 6 7
M  V30 6 1 6 8
M  V30 7 1 6 9
M  V30 8 1 6 10
M  V30 9 1 11 12
M  V30 10 1 11 13
M  V30 11 1 11 14
M  V30 12 1 11 15
M  V30 13 1 16 17
M  V30 14 1 16 18
M  V30 15 1 16 19
M  V30 16 1 16 20
M  V30 17 1 21 22
M  V30 18 1 21 23
M  V30 19 1 21 24
M  V30 20 1 21 25
M  V30 21 1 26 27
M  V30 22 1 26 28
M  V30 23 1 26 29
M  V30 24 1 26 30
M  V30 25 1 31 32
M  V30 26 1 31 33
M  V30 27 1 31 34
M  V30 28 1 31 35
M  V30 29 1 36 37
M  V30 30 1 36 38
M  V30 31 1 36 39
M  V30 32 1 36 40
M  V30 33 1 41 42
M  V30 34 1 41 43
M  V30 35 1 41 44
M  V30 36 1 41 45
M  V30 37 1 46 47
M  V30 38 1 47 48
M  V30 39 1 49 50
M  V30 40 1 50 51
M  V30 41 1 52 53
M  V30 42 1 53 54
M  V30 43 1 55 56
M  V30 44 1 56 57
M  V30 45 1 58 59
M  V30 46 1 59 60
M  V30 47 1 61 62
M  V30 48 1 62 63
M  V30 49 1 64 65
M  V30 50 1 65 66
M  V30 51 1 67 68
M  V30 52 1 68 69
M  V30 53 1 70 71
M  V30 54 1 71 72
M  V30 55 1 73 74
M  V30 56 1 74 75
M  V30 57 1 76 77
M  V30 58 1 77 78
M  V30 59 1 79 80
M  V30 60 1 80 81
M  V30 61 1 82 83
M  V30 62 1 83 84
M  V30 63 1 85 86
M  V30 64 1 86 87
M  V30 65 1 88 89
M  V30 66 1 89 90
M  V30 67 1 91 92
M  V30 68 1 92 93
M  V30 69 1 94 95
M  V30 70 1 95 96
M  V30 71 1 97 98
M  V30 72 1 98 99
M  V30 73 1 2 85
M  V30 74 1 3 67
M  V30 75 1 4 46
M  V30 76 1 5 49
M  V30 77 1 7 64
M  V30 78 1 8 58
M  V30 79 1 9 94
M  V30 80 1 10 61
M  V30 81 1 12 91
M  V30 82 1 13 73
M  V30 83 1 14 76
M  V30 84 1 15 82
M  V30 85 1 17 93
M  V30 86 1 18 87
M  V30 87 1 19 78
M  V30 88 1 20 88
M  V30 89 1 22 52
M  V30 90 1 23 70
M  V30 91 1 24 55
M  V30 92 1 25 63
M  V30 93 1 27 72
M  V30 94 1 28 79
M  V30 95 1 29 66
M  V30 96 1 30 84
M  V30 97 1 32 97
M  V30 98 1 33 69
M  V30 99 1 34 48
M  V30 100 1 35 96
M  V30 101 1 37 90
M  V30 102 1 38 51
M  V30 103 1 39 57
M  V30 104 1 40 54
M  V30 105 1 42 75
M  V30 106 1 43 60
M  V30 107 1 44 99
M  V30 108 1 45 81
M  V30 END BOND
M  V30 END CTAB
M  END

$$$$
