
     RDKit          3D

  0  0  0  0  0  0  0  0  0  0999 V3000
M  V30 BEGIN CTAB
M  V30 COUNTS 99 108 0 0 0
M  V30 BEGIN ATOM
M  V30 1 Pd -0.7105 -1.4893 6.5903 0
M  V30 2 Pb -0.4074 -2.2020 5.9579 0
M  V30 3 Pb -0.9484 -0.7540 7.2246 0
M  V30 4 Pb -1.4552 -1.2258 5.9768 0
M  V30 5 Pb 0.1374 -1.5852 7.1085 0
M  V30 6 Pd -7.5661 1.5863 -2.4582 0
M  V30 7 Pb -8.3834 1.0178 -2.5402 0
M  V30 8 Pb -7.4002 1.4816 -3.4521 0
M  V30 9 Pb -7.4906 1.3307 -1.4943 0
M  V30 10 Pb -6.7477 2.1551 -2.3762 0
M  V30 11 Pd -0.6767 3.0463 0.8505 0
M  V30 12 Pb -1.3376 2.5323 1.4046 0
M  V30 13 Pb -0.1480 3.8650 0.6131 0
M  V30 14 Pb -1.3927 3.2920 0.1970 0
M  V30 15 Pb -0.8307 2.0771 0.6695 0
M  V30 16 Pd 3.0826 4.0300 8.3606 0
M  V30 17 Pb 3.3260 3.0613 8.4241 0
M  V30 18 Pb 2.7852 4.9752 8.2776 0
M  V30 19 Pb 3.8419 4.2239 7.7152 0
M  V30 20 Pb 2.2394 3.7899 8.8371 0
M  V30 21 Pd -0.2307 -2.5400 -6.7944 0
M  V30 22 Pb -0.5917 -1.9876 -6.0429 0
M  V30 23 Pb -0.8938 -3.2717 -6.6288 0
M  V30 24 Pb 0.6244 -2.0102 -6.8304 0
M  V30 25 Pb 0.1366 -3.0954 -7.5361 0
M  V30 26 Pd 3.9189 5.2008 2.7483 0
M  V30 27 Pb 4.4298 4.4393 2.3386 0
M  V30 28 Pb 3.4582 5.9825 3.1551 0
M  V30 29 Pb 3.3670 5.3430 1.9223 0
M  V30 30 Pb 4.4008 5.0482 3.6322 0
M  V30 31 Pd 3.9784 -1.9574 1.0942 0
M  V30 32 Pb 3.4632 -2.6753 1.5593 0
M  V30 33 Pb 3.0406 -2.1470 0.8165 0
M  V30 34 Pb 4.7475 -1.3294 0.9998 0
M  V30 35 Pb 4.3386 -2.5976 0.4156 0
M  V30 36 Pd 3.6897 -5.0559 -6.0315 0
M  V30 37 Pb 3.2586 -5.0990 -6.9291 0
M  V30 38 Pb 3.8437 -4.0763 -6.2041 0
M  V30 39 Pb 4.1125 -5.0064 -5.1266 0
M  V30 40 Pb 3.2493 -5.9304 -5.8224 0
M  V30 41 Pd -4.9369 -2.3379 -4.1124 0
M  V30 42 Pb -5.8000 -2.8380 -4.1652 0
M  V30 43 Pb -4.7787 -2.7166 -3.2003 0
M  V30 44 Pb -5.2940 -1.6622 -4.7772 0
M  V30 45 Pb -4.0729 -1.8371 -4.0595 0
M  V30 46 Ag 4.8467 3.8760 2.0590 0
M  V30 47 Fe 5.1250 1.5862 1.4822 0
M  V30 48 Ag 5.1998 -0.7337 0.9686 0
M  V30 49 Ag -7.2675 0.8974 -0.9247 0
M  V30 50 Fe -5.9897 -1.0867 -1.1827 0
M  V30 51 Ag -4.8379 -2.7285 -2.4531 0
M  V30 52 Ag -1.0202 -0.1889 7.7119 0
M  V30 53 Fe 0.1310 1.7173 8.5329 0
M  V30 54 Ag 1.5821 3.5174 9.0675 0
M  V30 55 Ag 0.8006 -1.4981 7.4446 0
M  V30 56 Fe 2.2497 0.2853 8.0428 0
M  V30 57 Ag 3.3998 2.3164 8.4802 0
M  V30 58 Ag 4.6075 -3.0772 -0.0944 0
M  V30 59 Fe 4.5198 -4.0241 -2.2707 0
M  V30 60 Ag 4.4294 -4.9689 -4.4478 0
M  V30 61 Ag -6.1344 2.5824 -2.3143 0
M  V30 62 Fe -4.0319 3.0291 -1.3041 0
M  V30 63 Ag -1.9294 3.4756 -0.2937 0
M  V30 64 Ag 2.5798 5.6480 8.0482 0
M  V30 65 Fe 2.6553 6.5622 5.8800 0
M  V30 66 Ag 3.1459 6.5046 3.5777 0
M  V30 67 Ag -0.1192 -2.7082 5.4858 0
M  V30 68 Fe 1.4178 -3.0586 3.7111 0
M  V30 69 Ag 3.0097 -3.1232 1.9518 0
M  V30 70 Ag -1.1147 -3.9654 -6.4590 0
M  V30 71 Fe 0.4274 -5.6930 -5.9708 0
M  V30 72 Ag 2.6734 -6.3963 -5.7217 0
M  V30 73 Ag -1.9289 -0.9292 5.4755 0
M  V30 74 Fe -1.9809 0.5737 3.6337 0
M  V30 75 Ag -1.7958 2.1044 1.8234 0
M  V30 76 Ag -8.8650 0.4657 -2.6608 0
M  V30 77 Fe -8.2918 -1.6735 -3.4490 0
M  V30 78 Ag -6.5125 -3.0454 -4.1405 0
M  V30 79 Ag -0.8521 1.3420 0.5374 0
M  V30 80 Fe 0.5593 -0.5611 0.5207 0
M  V30 81 Ag 2.3156 -2.1463 0.6424 0
M  V30 82 Ba 0.4581 -3.5288 -8.0515 0
M  V30 83 Ga 1.6710 -4.3436 -7.9083 0
M  V30 84 Ba 2.8913 -5.0904 -7.5786 0
M  V30 85 Ba 0.3031 4.4318 0.4053 0
M  V30 86 Ga 1.6035 4.9596 0.8768 0
M  V30 87 Ba 2.9040 5.4896 1.3455 0
M  V30 88 Ba 4.3937 4.3633 7.2028 0
M  V30 89 Ga 4.5285 4.6519 5.7407 0
M  V30 90 Ba 4.7758 4.9453 4.2944 0
M  V30 91 Ba -7.1984 1.2741 -4.1628 0
M  V30 92 Ga -6.4131 0.1071 -4.6878 0
M  V30 93 Ba -5.6212 -1.0799 -5.1551 0
M  V30 94 Ba 1.3354 -1.7441 -6.8276 0
M  V30 95 Ga 2.6108 -2.4797 -6.5951 0
M  V30 96 Ba 3.8086 -3.3314 -6.3466 0
M  V30 97 Ba -0.8630 -1.5733 -5.4796 0
M  V30 98 Ga -2.1435 -1.5173 -4.7496 0
M  V30 99 Ba -3.4244 -1.4623 -4.0203 0
M  V30 END ATOM
M  V30 BEGIN BOND
M  V30 1 1 1 2
M  V30 2 1 1 3
M  V30 3 1 1 4
M  V30 4 1 1 5
M  V30 5 1 6 7
M  V30 6 1 6 8
M  V30 7 1 6 9
M  V30 8 1 6 10
M  V30 9 1 11 12
M  V30 10 1 11 13
M  V30 11 1 11 14
M  V30 12 1 11 15
M  V30 13 1 16 17
M  V30 14 1 16 18
M  V30 15 1 16 19
M  V30 16 1 16 20
M  V30 17 1 21 22
M  V30 18 1 21 23
M  V30 19 1 21 24
M  V30 20 1 21 25
M  V30 21 1 26 27
M  V30 22 1 26 28
M  V30 23 1 26 29
M  V30 24 1 26 30
M  V30 25 1 31 32
M  V30 26 1 31 33
M  V30 27 1 31 34
M  V30 28 1 31 35
M  V30 29 1 36 37
M  V30 30 1 36 38
M  V30 31 1 36 39
M  V30 32 1 36 40
M  V30 33 1 41 42
M  V30 34 1 41 43
M  V30 35 1 41 44
M  V30 36 1 41 45
M  V30 37 1 46 47
M  V30 38 1 47 48
M  V30 39 1 49 50
M  V30 40 1 50 51
M  V30 41 1 52 53
M  V30 42 1 53 54
M  V30 43 1 55 56
M  V30 44 1 56 57
M  V30 45 1 58 59
M  V30 46 1 59 60
M  V30 47 1 61 62
M  V30 48 1 62 63
M  V30 49 1 64 65
M  V30 50 1 65 66
M  V30 51 1 67 68
M  V30 52 1 68 69
M  V30 53 1 70 71
M  V30 54 1 71 72
M  V30 55 1 73 74
M  V30 56 1 74 75
M  V30 57 1 76 77
M  V30 58 1 77 78
M  V30 59 1 79 80
M  V30 60 1 80 81
M  V30 61 1 82 83
M  V30 62 1 83 84
M  V30 63 1 85 86
M  V30 64 1 86 87
M  V30 65 1 88 89
M  V30 66 1 89 90
M  V30 67 1 91 92
M  V30 68 1 92 93
M  V30 69 1 94 95
M  V30 70 1 95 96
M  V30 71 1 97 98
M  V30 72 1 98 99
M  V30 73 1 2 67
M  V30 74 1 3 52
M  V30 75 1 4 73
M  V30 76 1 5 55
M  V30 77 1 7 76
M  V30 78 1 8 91
M  V30 79 1 9 49
M  V30 80 1 10 61
M  V30 81 1 12 75
M  V30 82 1 13 85
M  V30 83 1 14 63
M  V30 84 1 15 79
M  V30 85 1 17 57
M  V30 86 1 18 64
M  V30 87 1 19 88
M  V30 88 1 20 54
M  V30 89 1 22 97
M  V30 90 1 23 70
M  V30 91 1 24 94
M  V30 92 1 25 82
M  V30 93 1 27 46
M  V30 94 1 28 66
M  V30 95 1 29 87
M  V30 96 1 30 90
M  V30 97 1 32 69
M  V30 98 1 33 81
M  V30 99 1 34 48
M  V30 100 1 35 58
M  V30 101 1 37 84
M  V30 102 1 38 96
M  V30 103 1 39 60
M  V30 104 1 40 72
M  V30 105 1 42 78
M  V30 106 1 43 51
M  V30 107 1 44 93
M  V30 108 1 45 99
M  V30 END BOND
M  V30 END CTAB
M  END

$$$$
