
     RDKit          3D

  0  0  0  0  0  0  0  0  0  0999 V3000
M  V30 BEGIN CTAB
M  V30 COUNTS 99 108 0 0 0
M  V30 BEGIN ATOM
M  V30 1 Pd 0.4648 1.1894 5.5168 0
M  V30 2 Pb 0.5933 0.1964 5.4568 0
M  V30 3 Pb 1.2418 1.3492 4.9111 0
M  V30 4 Pb 0.3252 2.1841 5.5455 0
M  V30 5 Pb -0.3355 1.1006 6.1074 0
M  V30 6 Pd -0.0784 -3.3395 1.9179 0
M  V30 7 Pb 0.2060 -2.9839 2.8151 0
M  V30 8 Pb -0.7737 -2.6103 1.8835 0
M  V30 9 Pb 0.7036 -3.9651 1.9571 0
M  V30 10 Pb -0.3685 -3.7907 1.0610 0
M  V30 11 Pd 1.8198 -1.0447 1.1469 0
M  V30 12 Pb 1.4471 -1.9406 0.8974 0
M  V30 13 Pb 2.2288 -0.2066 1.4931 0
M  V30 14 Pb 2.6758 -1.5478 1.2671 0
M  V30 15 Pb 0.9124 -0.6115 1.0897 0
M  V30 16 Pd -3.1610 5.2796 3.7897 0
M  V30 17 Pb -3.9780 5.4715 3.2572 0
M  V30 18 Pb -2.7067 5.3563 2.9026 0
M  V30 19 Pb -2.2947 5.1145 4.2736 0
M  V30 20 Pb -3.6357 5.0174 4.6265 0
M  V30 21 Pd 0.0217 -3.9969 -3.9690 0
M  V30 22 Pb 0.1980 -3.4625 -4.8025 0
M  V30 23 Pb -0.8310 -3.5076 -3.9060 0
M  V30 24 Pb 0.8395 -4.5559 -4.1010 0
M  V30 25 Pb -0.2002 -4.4423 -3.0938 0
M  V30 26 Pd -0.0808 2.0004 0.4690 0
M  V30 27 Pb 0.4577 2.5397 -0.1815 0
M  V30 28 Pb -0.6791 1.3880 1.0040 0
M  V30 29 Pb -0.7349 2.7599 0.4507 0
M  V30 30 Pb 0.6728 1.3566 0.5655 0
M  V30 31 Pd 0.6317 1.3212 -4.7919 0
M  V30 32 Pb 1.5451 0.9417 -4.6344 0
M  V30 33 Pb 0.4642 0.5342 -5.3976 0
M  V30 34 Pb -0.2481 1.7594 -5.0304 0
M  V30 35 Pb 0.8461 2.0601 -4.1456 0
M  V30 36 Pd 4.2892 -3.9205 -1.5488 0
M  V30 37 Pb 3.6051 -4.3954 -1.0001 0
M  V30 38 Pb 4.2885 -3.2001 -0.8659 0
M  V30 39 Pb 4.1945 -4.5962 -2.2707 0
M  V30 40 Pb 4.7543 -3.2960 -2.1676 0
M  V30 41 Pd -3.8451 2.5366 -2.4794 0
M  V30 42 Pb -3.7083 2.8659 -3.4099 0
M  V30 43 Pb -4.1622 3.4023 -2.1004 0
M  V30 44 Pb -3.7205 1.6234 -2.8277 0
M  V30 45 Pb -3.7365 2.1640 -1.5589 0
M  V30 46 Ag -1.4666 -3.1380 -3.9049 0
M  V30 47 Fe -2.5927 -1.1093 -3.4818 0
M  V30 48 Ag -3.7096 0.9243 -3.0582 0
M  V30 49 Ag -0.9728 1.2082 6.4800 0
M  V30 50 Fe -2.6916 2.8117 6.2187 0
M  V30 51 Ag -3.8296 4.6363 5.2354 0
M  V30 52 Ag 0.2121 -0.3234 1.0928 0
M  V30 53 Fe -1.6718 0.7425 0.0991 0
M  V30 54 Ag -3.5170 1.8551 -0.9112 0
M  V30 55 Ag -4.4434 5.6165 2.6950 0
M  V30 56 Fe -4.6462 4.9269 0.4373 0
M  V30 57 Ag -4.4919 3.9531 -1.7177 0
M  V30 58 Ag 2.2376 0.6584 -4.5601 0
M  V30 59 Fe 3.7027 -0.9813 -3.6653 0
M  V30 60 Ag 4.9207 -2.7345 -2.6282 0
M  V30 61 Ag 1.2803 0.9374 0.6770 0
M  V30 62 Fe 2.7799 -0.8139 0.1299 0
M  V30 63 Ag 4.2005 -2.6376 -0.3891 0
M  V30 64 Ba -0.5634 -4.2427 0.4804 0
M  V30 65 Ga -0.4597 -4.4263 -0.9908 0
M  V30 66 Ba -0.4385 -4.7463 -2.4424 0
M  V30 67 Ba 1.3859 -4.2743 1.9716 0
M  V30 68 Ga 2.5027 -3.3655 1.7057 0
M  V30 69 Ba 3.1633 -2.1006 1.3819 0
M  V30 70 Ba -0.8748 2.1304 -5.2531 0
M  V30 71 Ga -2.1759 2.5798 -4.6988 0
M  V30 72 Ba -3.4670 3.0062 -4.1050 0
M  V30 73 Ba 0.2370 2.9333 5.5679 0
M  V30 74 Ga -0.7316 3.9472 5.0889 0
M  V30 75 Ba -1.6447 5.0283 4.6495 0
M  V30 76 Ba -1.2462 -2.0182 1.9325 0
M  V30 77 Ga -1.1843 -0.5635 1.6261 0
M  V30 78 Ba -1.1551 0.8953 1.3335 0
M  V30 79 Ba 0.2575 -3.0149 -5.4094 0
M  V30 80 Ga 0.3356 -1.5469 -5.6201 0
M  V30 81 Ba 0.4130 -0.0800 -5.8382 0
M  V30 82 Ba 0.7063 -0.5469 5.4162 0
M  V30 83 Ga 0.5441 -1.6329 4.4226 0
M  V30 84 Ba 0.4261 -2.7955 3.5134 0
M  V30 85 Ba 0.8026 2.9400 -0.7175 0
M  V30 86 Ga 0.9326 2.7691 -2.1824 0
M  V30 87 Ba 1.0544 2.5871 -3.6467 0
M  V30 88 Ba 1.4401 -4.9906 -4.2120 0
M  V30 89 Ga 2.7557 -5.0792 -3.5643 0
M  V30 90 Ba 4.0268 -5.0566 -2.8290 0
M  V30 91 Ba 1.7938 1.5184 4.4350 0
M  V30 92 Ga 2.2003 0.9854 3.1270 0
M  V30 93 Ba 2.5348 0.3834 1.8289 0
M  V30 94 Ba -2.4753 5.3438 2.1882 0
M  V30 95 Ga -1.7836 4.3647 1.3222 0
M  V30 96 Ba -1.1020 3.4174 0.4140 0
M  V30 97 Ba 1.2776 -2.6629 0.7706 0
M  V30 98 Ga 2.0720 -3.7072 0.0925 0
M  V30 99 Ba 2.9910 -4.6097 -0.6297 0
M  V30 END ATOM
M  V30 BEGIN BOND
M  V30 1 1 1 2
M  V30 2 1 1 3
M  V30 3 1 1 4
M  V30 4 1 1 5
M  V30 5 1 6 7
M  V30 6 1 6 8
M  V30 7 1 6 9
M  V30 8 1 6 10
M  V30 9 1 11 12
M  V30 10 1 11 13
M  V30 11 1 11 14
M  V30 12 1 11 15
M  V30 13 1 16 17
M  V30 14 1 16 18
M  V30 15 1 16 19
M  V30 16 1 16 20
M  V30 17 1 21 22
M  V30 18 1 21 23
M  V30 19 1 21 24
M  V30 20 1 21 25
M  V30 21 1 26 27
M  V30 22 1 26 28
M  V30 23 1 26 29
M  V30 24 1 26 30
M  V30 25 1 31 32
M  V30 26 1 31 33
M  V30 27 1 31 34
M  V30 28 1 31 35
M  V30 29 1 36 37
M  V30 30 1 36 38
M  V30 31 1 36 39
M  V30 32 1 36 40
M  V30 33 1 41 42
M  V30 34 1 41 43
M  V30 35 1 41 44
M  V30 36 1 41 45
M  V30 37 1 46 47
M  V30 38 1 47 48
M  V30 39 1 49 50
M  V30 40 1 50 51
M  V30 41 1 52 53
M  V30 42 1 53 54
M  V30 43 1 55 56
M  V30 44 1 56 57
M  V30 45 1 58 59
M  V30 46 1 59 60
M  V30 47 1 61 62
M  V30 48 1 62 63
M  V30 49 1 64 65
M  V30 50 1 65 66
M  V30 51 1 67 68
M  V30 52 1 68 69
M  V30 53 1 70 71
M  V30 54 1 71 72
M  V30 55 1 73 74
M  V30 56 1 74 75
M  V30 57 1 76 77
M  V30 58 1 77 78
M  V30 59 1 79 80
M  V30 60 1 80 81
M  V30 61 1 82 83
M  V30 62 1 83 84
M  V30 63 1 85 86
M  V30 64 1 86 87
M  V30 65 1 88 89
M  V30 66 1 89 90
M  V30 67 1 91 92
M  V30 68 1 92 93
M  V30 69 1 94 95
M  V30 70 1 95 96
M  V30 71 1 97 98
M  V30 72 1 98 99
M  V30 73 1 2 82
M  V30 74 1 3 91
M  V30 75 1 4 73
M  V30 76 1 5 49
M  V30 77 1 7 84
M  V30 78 1 8 76
M  V30 79 1 9 67
M  V30 80 1 10 64
M  V30 81 1 12 97
M  V30 82 1 13 93
M  V30 83 1 14 69
M  V30 84 1 15 52
M  V30 85 1 17 55
M  V30 86 1 18 94
M  V30 87 1 19 75
M  V30 88 1 20 51
M  V30 89 1 22 79
M  V30 90 1 23 46
M  V30 91 1 24 88
M  V30 92 1 25 66
M  V30 93 1 27 85
M  V30 94 1 28 78
M  V30 95 1 29 96
M  V30 96 1 30 61
M  V30 97 1 32 58
M  V30 98 1 33 81
M  V30 99 1 34 70
M  V30 100 1 35 87
M  V30 101 1 37 99
M  V30 102 1 38 63
M  V30 103 1 39 90
M  V30 104 1 40 60
M  V30 105 1 42 72
M  V30 106 1 43 57
M  V30 107 1 44 48
M  V30 108 1 45 54
M  V30 END BOND
M  V30 END CTAB
M  END

$$$$
