
     RDKit          3D

  0  0  0  0  0  0  0  0  0  0999 V3000
M  V30 BEGIN CTAB
M  V30 COUNTS 99 108 0 0 0
M  V30 BEGIN ATOM
M  V30 1 Pd -1.1220 4.3282 -1.6520 0
M  V30 2 Pb -1.8384 4.9329 -1.3010 0
M  V30 3 Pb -0.3797 3.7412 -1.9781 0
M  V30 4 Pb -0.4247 5.0150 -1.4528 0
M  V30 5 Pb -1.8189 3.6371 -1.8516 0
M  V30 6 Pd 3.3791 -4.7918 -5.7805 0
M  V30 7 Pb 3.3280 -5.1209 -4.8356 0
M  V30 8 Pb 3.4212 -4.4387 -6.7143 0
M  V30 9 Pb 2.4927 -5.2037 -5.9836 0
M  V30 10 Pb 4.1994 -4.2574 -5.5732 0
M  V30 11 Pd -3.7859 -0.8847 6.5403 0
M  V30 12 Pb -3.6339 0.0216 6.9311 0
M  V30 13 Pb -3.8352 -1.7660 6.0735 0
M  V30 14 Pb -3.1068 -1.2987 7.1415 0
M  V30 15 Pb -4.3797 -0.4400 5.8687 0
M  V30 16 Pd 2.8601 -1.6938 4.9373 0
M  V30 17 Pb 2.4134 -2.0868 5.7376 0
M  V30 18 Pb 2.7421 -0.7911 5.3444 0
M  V30 19 Pb 2.9429 -2.6049 4.5280 0
M  V30 20 Pb 3.2247 -1.2223 4.1305 0
M  V30 21 Pd 0.0713 -5.1397 1.4141 0
M  V30 22 Pb 0.7294 -5.3322 0.6821 0
M  V30 23 Pb -0.6071 -4.9977 2.1375 0
M  V30 24 Pb 0.8445 -5.1102 2.0530 0
M  V30 25 Pb -0.6999 -5.1630 0.7775 0
M  V30 26 Pd 1.9605 5.1623 2.5959 0
M  V30 27 Pb 1.9734 4.7427 3.4996 0
M  V30 28 Pb 1.4111 5.9298 2.9283 0
M  V30 29 Pb 1.9412 5.5733 1.6857 0
M  V30 30 Pb 2.4656 4.3554 2.2739 0
M  V30 31 Pd -3.2152 5.5069 3.2837 0
M  V30 32 Pb -3.3621 5.7989 2.3369 0
M  V30 33 Pb -2.5071 6.2043 3.4006 0
M  V30 34 Pb -3.8837 4.7675 3.1912 0
M  V30 35 Pb -3.0890 5.1977 4.2261 0
M  V30 36 Pd -3.3634 -2.3601 -4.7730 0
M  V30 37 Pb -3.5630 -2.9693 -4.0084 0
M  V30 38 Pb -3.0552 -1.7441 -5.4960 0
M  V30 39 Pb -2.9607 -3.1421 -5.2474 0
M  V30 40 Pb -3.6886 -1.5668 -4.2597 0
M  V30 41 Pd 3.1867 -0.1190 -6.6041 0
M  V30 42 Pb 3.2908 -0.7180 -7.3947 0
M  V30 43 Pb 3.0483 0.4141 -5.7696 0
M  V30 44 Pb 2.2864 0.1586 -6.9349 0
M  V30 45 Pb 4.0352 -0.5032 -6.2360 0
M  V30 46 Ag 3.2908 -5.3646 -4.1252 0
M  V30 47 Fe 2.2337 -5.4064 -1.9958 0
M  V30 48 Ag 1.2467 -5.5107 0.1649 0
M  V30 49 Ag -1.3089 -5.1612 0.3391 0
M  V30 50 Fe -2.5071 -4.3301 -1.5346 0
M  V30 51 Ag -3.6242 -3.4414 -3.4315 0
M  V30 52 Ag 2.6369 -0.0988 5.6048 0
M  V30 53 Fe 2.3136 2.1709 5.0014 0
M  V30 54 Ag 2.0097 4.3574 4.1375 0
M  V30 55 Ag -4.7490 -0.0301 5.3594 0
M  V30 56 Fe -4.6710 2.0430 4.2006 0
M  V30 57 Ag -4.3406 4.1713 3.1965 0
M  V30 58 Ag -3.4952 0.7335 7.1165 0
M  V30 59 Fe -3.2393 2.8871 6.1513 0
M  V30 60 Ag -3.0417 4.9033 4.9139 0
M  V30 61 Ag 3.4367 -0.7687 3.5670 0
M  V30 62 Fe 3.1965 1.4495 2.7363 0
M  V30 63 Ag 2.8155 3.7105 2.0946 0
M  V30 64 Ag -2.5292 -1.6241 7.4848 0
M  V30 65 Fe -0.2341 -2.0741 7.1007 0
M  V30 66 Ag 1.9924 -2.2941 6.3183 0
M  V30 67 Ag 1.7890 -5.4109 -6.1311 0
M  V30 68 Fe -0.4600 -4.6868 -5.9071 0
M  V30 69 Ag -2.6003 -3.7255 -5.5491 0
M  V30 70 Ag -2.3627 3.1375 -1.9906 0
M  V30 71 Fe -3.1382 1.0959 -2.9257 0
M  V30 72 Ag -3.8780 -0.9530 -3.8735 0
M  V30 73 Ag -2.7425 -1.2740 -5.9874 0
M  V30 74 Fe -0.6486 -0.3987 -6.6803 0
M  V30 75 Ag 1.5776 0.2804 -7.1417 0
M  V30 76 Ag 0.2300 3.3554 -2.1872 0
M  V30 77 Fe 1.5397 2.0664 -3.6928 0
M  V30 78 Ag 2.9285 0.7733 -5.1222 0
M  V30 79 Ag -3.7728 -2.4244 5.7221 0
M  V30 80 Fe -2.4872 -3.6880 4.1744 0
M  V30 81 Ag -1.1742 -4.9219 2.6257 0
M  V30 82 Ba -2.3723 5.3888 -1.0342 0
M  V30 83 Ga -2.9209 5.6982 0.3016 0
M  V30 84 Ba -3.4824 6.0209 1.6289 0
M  V30 85 Ba 2.9904 -3.3062 4.2602 0
M  V30 86 Ga 2.2002 -4.1821 3.3684 0
M  V30 87 Ba 1.4590 -5.1117 2.4891 0
M  V30 88 Ba 4.7609 -3.7743 -5.4494 0
M  V30 89 Ga 4.7741 -2.3150 -5.6791 0
M  V30 90 Ba 4.6302 -0.8723 -5.9626 0
M  V30 91 Ba 3.4556 -4.1211 -7.3916 0
M  V30 92 Ga 3.4159 -2.6945 -7.7499 0
M  V30 93 Ba 3.3605 -1.2352 -7.9292 0
M  V30 94 Ba 0.1253 5.5020 -1.3076 0
M  V30 95 Ga 1.0180 5.7142 -0.1548 0
M  V30 96 Ba 1.8954 5.9016 1.0140 0
M  V30 97 Ba 0.9713 6.4938 3.1566 0
M  V30 98 Ga -0.4883 6.6222 3.3348 0
M  V30 99 Ba -1.9532 6.7017 3.4980 0
M  V30 END ATOM
M  V30 BEGIN BOND
M  V30 1 1 1 2
M  V30 2 1 1 3
M  V30 3 1 1 4
M  V30 4 1 1 5
M  V30 5 1 6 7
M  V30 6 1 6 8
M  V30 7 1 6 9
M  V30 8 1 6 10
M  V30 9 1 11 12
M  V30 10 1 11 13
M  V30 11 1 11 14
M  V30 12 1 11 15
M  V30 13 1 16 17
M  V30 14 1 16 18
M  V30 15 1 16 19
M  V30 16 1 16 20
M  V30 17 1 21 22
M  V30 18 1 21 23
M  V30 19 1 21 24
M  V30 20 1 21 25
M  V30 21 1 26 27
M  V30 22 1 26 28
M  V30 23 1 26 29
M  V30 24 1 26 30
M  V30 25 1 31 32
M  V30 26 1 31 33
M  V30 27 1 31 34
M  V30 28 1 31 35
M  V30 29 1 36 37
M  V30 30 1 36 38
M  V30 31 1 36 39
M  V30 32 1 36 40
M  V30 33 1 41 42
M  V30 34 1 41 43
M  V30 35 1 41 44
M  V30 36 1 41 45
M  V30 37 1 46 47
M  V30 38 1 47 48
M  V30 39 1 49 50
M  V30 40 1 50 51
M  V30 41 1 52 53
M  V30 42 1 53 54
M  V30 43 1 55 56
M  V30 44 1 56 57
M  V30 45 1 58 59
M  V30 46 1 59 60
M  V30 47 1 61 62
M  V30 48 1 62 63
M  V30 49 1 64 65
M  V30 50 1 65 66
M  V30 51 1 67 68
M  V30 52 1 68 69
M  V30 53 1 70 71
M  V30 54 1 71 72
M  V30 55 1 73 74
M  V30 56 1 74 75
M  V30 57 1 76 77
M  V30 58 1 77 78
M  V30 59 1 79 80
M  V30 60 1 80 81
M  V30 61 1 82 83
M  V30 62 1 83 84
M  V30 63 1 85 86
M  V30 64 1 86 87
M  V30 65 1 88 89
M  V30 66 1 89 90
M  V30 67 1 91 92
M  V30 68 1 92 93
M  V30 69 1 94 95
M  V30 70 1 95 96
M  V30 71 1 97 98
M  V30 72 1 98 99
M  V30 73 1 2 82
M  V30 74 1 3 76
M  V30 75 1 4 94
M  V30 76 1 5 70
M  V30 77 1 7 46
M  V30 78 1 8 91
M  V30 79 1 9 67
M  V30 80 1 10 88
M  V30 81 1 12 58
M  V30 82 1 13 79
M  V30 83 1 14 64
M  V30 84 1 15 55
M  V30 85 1 17 66
M  V30 86 1 18 52
M  V30 87 1 19 85
M  V30 88 1 20 61
M  V30 89 1 22 48
M  V30 90 1 23 81
M  V30 91 1 24 87
M  V30 92 1 25 49
M  V30 93 1 27 54
M  V30 94 1 28 97
M  V30 95 1 29 96
M  V30 96 1 30 63
M  V30 97 1 32 84
M  V30 98 1 33 99
M  V30 99 1 34 57
M  V30 100 1 35 60
M  V30 101 1 37 51
M  V30 102 1 38 73
M  V30 103 1 39 69
M  V30 104 1 40 72
M  V30 105 1 42 93
M  V30 106 1 43 78
M  V30 107 1 44 75
M  V30 108 1 45 90
M  V30 END BOND
M  V30 END CTAB
M  END

$$$$
