
     RDKit          3D

  0  0  0  0  0  0  0  0  0  0999 V3000
M  V30 BEGIN CTAB
M  V30 COUNTS 99 108 0 0 0
M  V30 BEGIN ATOM
M  V30 1 Pd -3.5804 2.1106 -2.5259 0
M  V30 2 Pb -3.4255 1.2418 -2.9956 0
M  V30 3 Pb -3.0247 2.5694 -3.2214 0
M  V30 4 Pb -4.2868 1.6968 -1.9457 0
M  V30 5 Pb -3.5987 2.9504 -1.9818 0
M  V30 6 Pd -5.4592 -0.1302 2.5047 0
M  V30 7 Pb -5.0968 -0.4370 3.3973 0
M  V30 8 Pb -4.9779 0.7342 2.6167 0
M  V30 9 Pb -5.7717 0.1371 1.5944 0
M  V30 10 Pb -5.8508 -1.0426 2.4069 0
M  V30 11 Pd -0.7058 -2.0707 5.0949 0
M  V30 12 Pb 0.2599 -2.1699 4.8637 0
M  V30 13 Pb -0.6106 -1.0872 4.9670 0
M  V30 14 Pb -0.8210 -3.0589 5.2254 0
M  V30 15 Pb -1.6891 -1.9199 5.2685 0
M  V30 16 Pd 0.1621 -4.4905 -1.6053 0
M  V30 17 Pb 0.5850 -5.1478 -0.9807 0
M  V30 18 Pb 0.8654 -3.8296 -1.3401 0
M  V30 19 Pb -0.5647 -5.1541 -1.7732 0
M  V30 20 Pb -0.3117 -3.8439 -2.2070 0
M  V30 21 Pd 4.6283 2.1978 1.9337 0
M  V30 22 Pb 3.9484 2.6465 2.5195 0
M  V30 23 Pb 5.2753 1.7549 1.3111 0
M  V30 24 Pb 4.3923 1.3031 2.3145 0
M  V30 25 Pb 4.8846 3.0985 1.5852 0
M  V30 26 Pd -2.2151 -6.5561 2.1505 0
M  V30 27 Pb -2.4194 -6.7516 1.1910 0
M  V30 28 Pb -1.2605 -6.7868 1.9689 0
M  V30 29 Pb -1.9841 -6.3332 3.1005 0
M  V30 30 Pb -3.1581 -6.2512 2.2764 0
M  V30 31 Pd 1.4272 3.0461 -5.5048 0
M  V30 32 Pb 2.4141 2.8995 -5.5555 0
M  V30 33 Pb 1.5618 4.0148 -5.3105 0
M  V30 34 Pb 1.2970 2.0586 -5.5880 0
M  V30 35 Pb 0.4431 3.2073 -5.4411 0
M  V30 36 Pd 1.5942 6.1876 0.8041 0
M  V30 37 Pb 1.6185 6.5918 -0.1077 0
M  V30 38 Pb 2.5925 6.1745 0.8093 0
M  V30 39 Pb 0.5944 6.1456 0.7477 0
M  V30 40 Pb 1.6051 5.7004 1.6789 0
M  V30 41 Pd 4.1017 -0.3152 -2.8515 0
M  V30 42 Pb 3.7002 -0.9037 -2.1516 0
M  V30 43 Pb 3.3447 -0.5067 -3.4794 0
M  V30 44 Pb 4.4813 0.3062 -3.5343 0
M  V30 45 Pb 4.8608 -0.1076 -2.2306 0
M  V30 46 Ag 0.9760 -2.1623 4.6475 0
M  V30 47 Fe 2.6499 -0.8169 3.6353 0
M  V30 48 Ag 4.2261 0.6343 2.6120 0
M  V30 49 Ag -3.5172 3.5544 -1.5427 0
M  V30 50 Fe -1.9080 4.8869 -0.4088 0
M  V30 51 Ag -0.1489 6.0893 0.6456 0
M  V30 52 Ag -6.0418 -1.7653 2.3875 0
M  V30 53 Fe -5.0817 -3.9348 2.3513 0
M  V30 54 Ag -3.8478 -5.9613 2.3120 0
M  V30 55 Ag 1.6284 4.7152 -5.0601 0
M  V30 56 Fe 1.6632 5.9346 -3.0271 0
M  V30 57 Ag 1.6577 6.8065 -0.8224 0
M  V30 58 Ag -4.4712 1.2497 2.7807 0
M  V30 59 Fe -2.3792 0.9202 3.8175 0
M  V30 60 Ag -0.6715 -0.3612 4.8203 0
M  V30 61 Ag -3.2178 0.5934 -3.3107 0
M  V30 62 Fe -1.9826 -1.4157 -3.0158 0
M  V30 63 Ag -0.7266 -3.4004 -2.6514 0
M  V30 64 Ba 3.1498 2.7608 -5.5746 0
M  V30 65 Ga 3.9790 1.7936 -4.8359 0
M  V30 66 Ba 4.7203 0.7943 -4.0484 0
M  V30 67 Ba 0.8571 -5.6449 -0.4889 0
M  V30 68 Ga 0.2119 -6.3107 0.6573 0
M  V30 69 Ba -0.5483 -6.9062 1.7711 0
M  V30 70 Ba -2.7172 2.9326 -3.8036 0
M  V30 71 Ga -1.4596 3.1109 -4.5548 0
M  V30 72 Ba -0.2826 3.3888 -5.4010 0
M  V30 73 Ba 1.3917 -3.3840 -1.0425 0
M  V30 74 Ga 2.3842 -2.3502 -1.3907 0
M  V30 75 Ba 3.4131 -1.3132 -1.5945 0
M  V30 76 Ba -1.1196 -5.6542 -1.8178 0
M  V30 77 Ga -1.8673 -6.2987 -0.7235 0
M  V30 78 Ba -2.5357 -6.8701 0.4593 0
M  V30 79 Ba 5.7458 1.4165 0.8329 0
M  V30 80 Ga 5.5873 0.7330 -0.4674 0
M  V30 81 Ba 5.4330 0.0487 -1.7678 0
M  V30 82 Ba -4.8505 -0.6988 4.0679 0
M  V30 83 Ga -3.6098 -1.2302 4.6950 0
M  V30 84 Ba -2.4216 -1.7733 5.4081 0
M  V30 85 Ba 1.2409 1.3110 -5.5829 0
M  V30 86 Ga 1.9893 0.3097 -4.7977 0
M  V30 87 Ba 2.7878 -0.6180 -3.9722 0
M  V30 88 Ba 5.0567 3.7909 1.3563 0
M  V30 89 Ga 4.2304 4.9754 1.0657 0
M  V30 90 Ba 3.3382 6.1152 0.7922 0
M  V30 91 Ba -4.8978 1.4227 -1.5997 0
M  V30 92 Ga -5.3909 0.8756 -0.3197 0
M  V30 93 Ba -6.0002 0.3166 0.9042 0
M  V30 94 Ba 3.4288 3.0051 2.9305 0
M  V30 95 Ga 2.5328 4.1483 2.6525 0
M  V30 96 Ba 1.6648 5.2954 2.3092 0
M  V30 97 Ba -0.9291 -3.7948 5.3449 0
M  V30 98 Ga -1.3595 -4.9708 4.5577 0
M  V30 99 Ba -1.7855 -6.1730 3.8087 0
M  V30 END ATOM
M  V30 BEGIN BOND
M  V30 1 1 1 2
M  V30 2 1 1 3
M  V30 3 1 1 4
M  V30 4 1 1 5
M  V30 5 1 6 7
M  V30 6 1 6 8
M  V30 7 1 6 9
M  V30 8 1 6 10
M  V30 9 1 11 12
M  V30 10 1 11 13
M  V30 11 1 11 14
M  V30 12 1 11 15
M  V30 13 1 16 17
M  V30 14 1 16 18
M  V30 15 1 16 19
M  V30 16 1 16 20
M  V30 17 1 21 22
M  V30 18 1 21 23
M  V30 19 1 21 24
M  V30 20 1 21 25
M  V30 21 1 26 27
M  V30 22 1 26 28
M  V30 23 1 26 29
M  V30 24 1 26 30
M  V30 25 1 31 32
M  V30 26 1 31 33
M  V30 27 1 31 34
M  V30 28 1 31 35
M  V30 29 1 36 37
M  V30 30 1 36 38
M  V30 31 1 36 39
M  V30 32 1 36 40
M  V30 33 1 41 42
M  V30 34 1 41 43
M  V30 35 1 41 44
M  V30 36 1 41 45
M  V30 37 1 46 47
M  V30 38 1 47 48
M  V30 39 1 49 50
M  V30 40 1 50 51
M  V30 41 1 52 53
M  V30 42 1 53 54
M  V30 43 1 55 56
M  V30 44 1 56 57
M  V30 45 1 58 59
M  V30 46 1 59 60
M  V30 47 1 61 62
M  V30 48 1 62 63
M  V30 49 1 64 65
M  V30 50 1 65 66
M  V30 51 1 67 68
M  V30 52 1 68 69
M  V30 53 1 70 71
M  V30 54 1 71 72
M  V30 55 1 73 74
M  V30 56 1 74 75
M  V30 57 1 76 77
M  V30 58 1 77 78
M  V30 59 1 79 80
M  V30 60 1 80 81
M  V30 61 1 82 83
M  V30 62 1 83 84
M  V30 63 1 85 86
M  V30 64 1 86 87
M  V30 65 1 88 89
M  V30 66 1 89 90
M  V30 67 1 91 92
M  V30 68 1 92 93
M  V30 69 1 94 95
M  V30 70 1 95 96
M  V30 71 1 97 98
M  V30 72 1 98 99
M  V30 73 1 2 61
M  V30 74 1 3 70
M  V30 75 1 4 91
M  V30 76 1 5 49
M  V30 77 1 7 82
M  V30 78 1 8 58
M  V30 79 1 9 93
M  V30 80 1 10 52
M  V30 81 1 12 46
M  V30 82 1 13 60
M  V30 83 1 14 97
M  V30 84 1 15 84
M  V30 85 1 17 67
M  V30 86 1 18 73
M  V30 87 1 19 76
M  V30 88 1 20 63
M  V30 89 1 22 94
M  V30 90 1 23 79
M  V30 91 1 24 48
M  V30 92 1 25 88
M  V30 93 1 27 78
M  V30 94 1 28 69
M  V30 95 1 29 99
M  V30 96 1 30 54
M  V30 97 1 32 64
M  V30 98 1 33 55
M  V30 99 1 34 85
M  V30 100 1 35 72
M  V30 101 1 37 57
M  V30 102 1 38 90
M  V30 103 1 39 51
M  V30 104 1 40 96
M  V30 105 1 42 75
M  V30 106 1 43 87
M  V30 107 1 44 66
M  V30 108 1 45 81
M  V30 END BOND
M  V30 END CTAB
M  END

$$$$
