
     RDKit          3D

  0  0  0  0  0  0  0  0  0  0999 V3000
M  V30 BEGIN CTAB
M  V30 COUNTS 99 108 0 0 0
M  V30 BEGIN ATOM
M  V30 1 Pd 3.6348 -0.2556 -1.5035 0
M  V30 2 Pb 3.2707 -0.9585 -2.1224 0
M  V30 3 Pb 4.4708 -0.7927 -1.3964 0
M  V30 4 Pb 2.7929 0.2726 -1.5954 0
M  V30 5 Pb 3.9846 0.4086 -0.8420 0
M  V30 6 Pd 0.7607 4.9505 -0.8158 0
M  V30 7 Pb 0.3578 5.8528 -0.6911 0
M  V30 8 Pb 0.4671 4.7138 0.1076 0
M  V30 9 Pb 0.9201 3.9852 -1.0322 0
M  V30 10 Pb 0.8999 5.1939 -1.7700 0
M  V30 11 Pd -3.8841 4.6406 -0.3595 0
M  V30 12 Pb -4.3491 3.7995 -0.0833 0
M  V30 13 Pb -3.2913 4.5461 0.4423 0
M  V30 14 Pb -4.4317 4.6870 -1.2007 0
M  V30 15 Pb -3.4122 5.5036 -0.5598 0
M  V30 16 Pd -1.1735 -2.0510 -3.9472 0
M  V30 17 Pb -0.9038 -1.3758 -4.6304 0
M  V30 18 Pb -1.4873 -2.7755 -3.3308 0
M  V30 19 Pb -2.1292 -1.7645 -4.0648 0
M  V30 20 Pb -0.2119 -2.3175 -3.8372 0
M  V30 21 Pd -2.9451 -0.2978 4.9517 0
M  V30 22 Pb -2.1449 -0.4119 5.5712 0
M  V30 23 Pb -2.9561 -1.2726 4.7304 0
M  V30 24 Pb -3.6512 -0.1385 4.2620 0
M  V30 25 Pb -2.9409 0.6761 5.1509 0
M  V30 26 Pd -3.4017 2.4970 -5.3648 0
M  V30 27 Pb -3.8752 1.6466 -5.1328 0
M  V30 28 Pb -2.6687 1.9616 -5.7796 0
M  V30 29 Pb -4.0927 3.0550 -4.8942 0
M  V30 30 Pb -2.8438 3.3007 -5.5467 0
M  V30 31 Pd 4.7107 -4.7721 1.1489 0
M  V30 32 Pb 4.3370 -5.2073 0.3273 0
M  V30 33 Pb 4.9809 -4.2957 1.9842 0
M  V30 34 Pb 4.1598 -5.3881 1.7047 0
M  V30 35 Pb 5.2638 -4.1539 0.5906 0
M  V30 36 Pd 2.6500 1.1163 5.5067 0
M  V30 37 Pb 3.1979 0.2834 5.4226 0
M  V30 38 Pb 2.1368 1.9626 5.6000 0
M  V30 39 Pb 3.2840 1.5566 4.8738 0
M  V30 40 Pb 1.9100 0.6291 6.0061 0
M  V30 41 Pd -0.1911 -5.8266 0.4532 0
M  V30 42 Pb -0.8175 -5.4914 -0.2513 0
M  V30 43 Pb 0.4104 -6.1794 1.1653 0
M  V30 44 Pb 0.5370 -5.9910 -0.2161 0
M  V30 45 Pb -0.8737 -5.6220 1.1535 0
M  V30 46 Ag -4.6660 3.1815 0.1998 0
M  V30 47 Fe -4.4971 1.5440 1.9117 0
M  V30 48 Ag -4.1180 0.0270 3.6991 0
M  V30 49 Ag 4.2310 0.8712 -0.3048 0
M  V30 50 Fe 4.0672 1.4541 1.9910 0
M  V30 51 Ag 3.6980 1.8176 4.3078 0
M  V30 52 Ag 0.8367 5.3620 -2.4915 0
M  V30 53 Fe -0.6259 4.7770 -4.2564 0
M  V30 54 Ag -2.3238 3.8300 -5.6046 0
M  V30 55 Ag 5.1014 -3.9290 2.6262 0
M  V30 56 Fe 4.4116 -2.1298 4.0146 0
M  V30 57 Ag 3.6521 -0.3079 5.3353 0
M  V30 58 Ag -2.9808 -1.9954 4.5329 0
M  V30 59 Fe -2.1925 -3.7458 3.1357 0
M  V30 60 Ag -1.3510 -5.4407 1.7017 0
M  V30 61 Ag -2.7871 1.3867 5.2881 0
M  V30 62 Fe -0.7106 2.4608 5.5595 0
M  V30 63 Ag 1.6402 2.5075 5.6650 0
M  V30 64 Ba 3.9929 -5.5191 -0.2644 0
M  V30 65 Ga 2.5674 -5.8273 -0.5102 0
M  V30 66 Ba 1.1236 -6.1025 -0.6746 0
M  V30 67 Ba -0.7458 -0.8887 -5.1753 0
M  V30 68 Ga -1.3978 0.3495 -5.6321 0
M  V30 69 Ba -2.0839 1.5825 -6.0516 0
M  V30 70 Ba 5.0911 -1.2031 -1.3048 0
M  V30 71 Ga 5.3937 -2.4460 -0.5716 0
M  V30 72 Ba 5.6748 -3.6899 0.1684 0
M  V30 73 Ba -1.7951 -3.3288 -2.9254 0
M  V30 74 Ga -1.4935 -4.2697 -1.8286 0
M  V30 75 Ba -1.3307 -5.2635 -0.7491 0
M  V30 76 Ba -2.8461 -1.5467 -4.1546 0
M  V30 77 Ga -3.5234 -0.2923 -4.5489 0
M  V30 78 Ba -4.1656 0.9794 -4.9470 0
M  V30 79 Ba 0.1304 4.5666 0.7587 0
M  V30 80 Ga -1.3258 4.4938 0.9747 0
M  V30 81 Ba -2.7994 4.4584 1.0035 0
M  V30 82 Ba -0.0870 6.4527 -0.6696 0
M  V30 83 Ga -1.5619 6.3903 -0.6492 0
M  V30 84 Ba -3.0177 6.1428 -0.6273 0
M  V30 85 Ba 3.0208 -1.5183 -2.5628 0
M  V30 86 Ga 1.7479 -1.9831 -3.1593 0
M  V30 87 Ba 0.5153 -2.5100 -3.7881 0
M  V30 88 Ba 3.7200 -5.8403 2.1024 0
M  V30 89 Ga 2.2984 -6.1717 1.9397 0
M  V30 90 Ba 0.8753 -6.4359 1.6900 0
M  V30 91 Ba 2.1456 0.6405 -1.6659 0
M  V30 92 Ga 1.5980 1.9896 -1.4239 0
M  V30 93 Ba 0.8781 3.2655 -1.2488 0
M  V30 94 Ba -1.5424 -0.4855 6.0425 0
M  V30 95 Ga -0.1026 -0.0875 6.1510 0
M  V30 96 Ba 1.3403 0.2556 6.3599 0
M  V30 97 Ba -4.8388 4.6934 -1.8364 0
M  V30 98 Ga -4.7085 4.0881 -3.1830 0
M  V30 99 Ba -4.5940 3.4905 -4.5344 0
M  V30 END ATOM
M  V30 BEGIN BOND
M  V30 1 1 1 2
M  V30 2 1 1 3
M  V30 3 1 1 4
M  V30 4 1 1 5
M  V30 5 1 6 7
M  V30 6 1 6 8
M  V30 7 1 6 9
M  V30 8 1 6 10
M  V30 9 1 11 12
M  V30 10 1 11 13
M  V30 11 1 11 14
M  V30 12 1 11 15
M  V30 13 1 16 17
M  V30 14 1 16 18
M  V30 15 1 16 19
M  V30 16 1 16 20
M  V30 17 1 21 22
M  V30 18 1 21 23
M  V30 19 1 21 24
M  V30 20 1 21 25
M  V30 21 1 26 27
M  V30 22 1 26 28
M  V30 23 1 26 29
M  V30 24 1 26 30
M  V30 25 1 31 32
M  V30 26 1 31 33
M  V30 27 1 31 34
M  V30 28 1 31 35
M  V30 29 1 36 37
M  V30 30 1 36 38
M  V30 31 1 36 39
M  V30 32 1 36 40
M  V30 33 1 41 42
M  V30 34 1 41 43
M  V30 35 1 41 44
M  V30 36 1 41 45
M  V30 37 1 46 47
M  V30 38 1 47 48
M  V30 39 1 49 50
M  V30 40 1 50 51
M  V30 41 1 52 53
M  V30 42 1 53 54
M  V30 43 1 55 56
M  V30 44 1 56 57
M  V30 45 1 58 59
M  V30 46 1 59 60
M  V30 47 1 61 62
M  V30 48 1 62 63
M  V30 49 1 64 65
M  V30 50 1 65 66
M  V30 51 1 67 68
M  V30 52 1 68 69
M  V30 53 1 70 71
M  V30 54 1 71 72
M  V30 55 1 73 74
M  V30 56 1 74 75
M  V30 57 1 76 77
M  V30 58 1 77 78
M  V30 59 1 79 80
M  V30 60 1 80 81
M  V30 61 1 82 83
M  V30 62 1 83 84
M  V30 63 1 85 86
M  V30 64 1 86 87
M  V30 65 1 88 89
M  V30 66 1 89 90
M  V30 67 1 91 92
M  V30 68 1 92 93
M  V30 69 1 94 95
M  V30 70 1 95 96
M  V30 71 1 97 98
M  V30 72 1 98 99
M  V30 73 1 2 85
M  V30 74 1 3 70
M  V30 75 1 4 91
M  V30 76 1 5 49
M  V30 77 1 7 82
M  V30 78 1 8 79
M  V30 79 1 9 93
M  V30 80 1 10 52
M  V30 81 1 12 46
M  V30 82 1 13 81
M  V30 83 1 14 97
M  V30 84 1 15 84
M  V30 85 1 17 67
M  V30 86 1 18 73
M  V30 87 1 19 76
M  V30 88 1 20 87
M  V30 89 1 22 94
M  V30 90 1 23 58
M  V30 91 1 24 48
M  V30 92 1 25 61
M  V30 93 1 27 78
M  V30 94 1 28 69
M  V30 95 1 29 99
M  V30 96 1 30 54
M  V30 97 1 32 64
M  V30 98 1 33 55
M  V30 99 1 34 88
M  V30 100 1 35 72
M  V30 101 1 37 57
M  V30 102 1 38 63
M  V30 103 1 39 51
M  V30 104 1 40 96
M  V30 105 1 42 75
M  V30 106 1 43 90
M  V30 107 1 44 66
M  V30 108 1 45 60
M  V30 END BOND
M  V30 END CTAB
M  END

$$$$
