
     RDKit          3D

  0  0  0  0  0  0  0  0  0  0999 V3000
M  V30 BEGIN CTAB
M  V30 COUNTS 99 108 0 0 0
M  V30 BEGIN ATOM
M  V30 1 Pd 3.4204 -0.8120 -1.6626 0
M  V30 2 Pb 3.7293 -1.6798 -2.0521 0
M  V30 3 Pb 2.6829 -1.3114 -1.2102 0
M  V30 4 Pb 4.1090 -0.3318 -2.2052 0
M  V30 5 Pb 3.1100 0.0595 -1.2740 0
M  V30 6 Pd -1.5846 -0.2095 8.4523 0
M  V30 7 Pb -2.1509 0.5407 8.1070 0
M  V30 8 Pb -0.9954 -0.9596 8.7405 0
M  V30 9 Pb -0.8207 0.4148 8.5888 0
M  V30 10 Pb -2.2311 -0.9064 8.1384 0
M  V30 11 Pd -4.6435 -0.6655 -2.4065 0
M  V30 12 Pb -4.3869 -0.9116 -3.3383 0
M  V30 13 Pb -4.8813 -0.4177 -1.4656 0
M  V30 14 Pb -5.0316 0.1857 -2.7539 0
M  V30 15 Pb -4.1508 -1.4847 -2.1092 0
M  V30 16 Pd -1.9048 3.4321 -4.1334 0
M  V30 17 Pb -2.8803 3.1999 -4.1372 0
M  V30 18 Pb -1.7489 2.9809 -5.0160 0
M  V30 19 Pb -2.0165 3.8591 -3.2380 0
M  V30 20 Pb -0.9447 3.7023 -4.1183 0
M  V30 21 Pd -2.4481 3.1429 3.7609 0
M  V30 22 Pb -2.6446 2.8910 4.7146 0
M  V30 23 Pb -3.2117 2.5805 3.4436 0
M  V30 24 Pb -2.3477 3.5031 2.8338 0
M  V30 25 Pb -1.6382 3.6784 4.0065 0
M  V30 26 Pd 2.5114 1.3006 -6.1498 0
M  V30 27 Pb 1.5882 1.3884 -6.5346 0
M  V30 28 Pb 2.6746 0.4631 -6.6747 0
M  V30 29 Pb 3.4064 1.2136 -5.7107 0
M  V30 30 Pb 2.3573 2.1336 -5.6248 0
M  V30 31 Pd 1.1904 -3.6653 -5.2702 0
M  V30 32 Pb 2.0330 -3.8963 -4.7873 0
M  V30 33 Pb 1.7219 -3.3149 -6.0398 0
M  V30 34 Pb 0.6327 -3.9253 -4.4792 0
M  V30 35 Pb 0.3444 -3.3749 -5.7093 0
M  V30 36 Pd 2.7241 2.0251 3.2760 0
M  V30 37 Pb 2.2313 2.8866 3.4175 0
M  V30 38 Pb 3.1641 1.1284 3.1846 0
M  V30 39 Pb 2.7708 1.9802 4.2731 0
M  V30 40 Pb 2.6379 2.1020 2.2789 0
M  V30 41 Pd 0.7163 -4.7824 4.1983 0
M  V30 42 Pb 0.9870 -4.8608 5.1530 0
M  V30 43 Pb 0.4378 -4.5857 3.2627 0
M  V30 44 Pb 1.6344 -4.4867 3.9377 0
M  V30 45 Pb -0.2330 -4.8539 4.5101 0
M  V30 46 Ag -2.0662 4.1732 -2.5607 0
M  V30 47 Fe -2.1899 3.9561 -0.1998 0
M  V30 48 Ag -2.3144 3.8475 2.1685 0
M  V30 49 Ag -3.7065 -2.0771 -1.9817 0
M  V30 50 Fe -1.7760 -3.1714 -2.8346 0
M  V30 51 Ag 0.1599 -4.0415 -3.9058 0
M  V30 52 Ag -2.5685 -1.4961 7.8167 0
M  V30 53 Fe -1.9651 -3.2405 6.3176 0
M  V30 54 Ag -0.9100 -4.7607 4.8243 0
M  V30 55 Ag -0.5536 -1.5500 8.8499 0
M  V30 56 Fe 0.4146 -3.3025 7.5873 0
M  V30 57 Ag 1.1027 -4.7961 5.8852 0
M  V30 58 Ag -4.1398 -1.1244 -4.0104 0
M  V30 59 Fe -2.3022 -2.1153 -5.1330 0
M  V30 60 Ag -0.3166 -3.1225 -5.9458 0
M  V30 61 Ag -0.1845 0.8030 8.5520 0
M  V30 62 Fe 1.3789 1.4853 6.9037 0
M  V30 63 Ag 2.7237 2.0083 5.0205 0
M  V30 64 Ag 3.4485 0.4326 3.1409 0
M  V30 65 Fe 2.9985 -1.8867 3.4034 0
M  V30 66 Ag 2.2583 -4.1196 3.7426 0
M  V30 67 Ag 2.1252 -1.7262 -0.9300 0
M  V30 68 Fe 1.1638 -3.0508 0.7876 0
M  V30 69 Ag 0.2919 -4.3517 2.5695 0
M  V30 70 Ag -5.0493 -0.2213 -0.7598 0
M  V30 71 Fe -4.4498 0.9468 1.2207 0
M  V30 72 Ag -3.7492 2.1498 3.1463 0
M  V30 73 Ba -2.5628 1.1154 7.8527 0
M  V30 74 Ga -2.6743 1.9077 6.6077 0
M  V30 75 Ba -2.8793 2.7699 5.4229 0
M  V30 76 Ba 3.9385 -2.3360 -2.3490 0
M  V30 77 Ga 3.3338 -3.2060 -3.3732 0
M  V30 78 Ba 2.6647 -4.0177 -4.4051 0
M  V30 79 Ba -1.0109 4.0835 4.0969 0
M  V30 80 Ga 0.4223 3.8071 3.8575 0
M  V30 81 Ba 1.8491 3.5061 3.6105 0
M  V30 82 Ba -1.5904 2.6410 -5.6698 0
M  V30 83 Ga -0.3598 2.0496 -6.2428 0
M  V30 84 Ba 0.8840 1.4648 -6.7935 0
M  V30 85 Ba -0.2277 3.9133 -4.1070 0
M  V30 86 Ga 1.0126 3.3485 -4.6595 0
M  V30 87 Ba 2.2315 2.7529 -5.2272 0
M  V30 88 Ba -5.2515 0.8317 -3.0610 0
M  V30 89 Ga -4.4574 1.9575 -3.5908 0
M  V30 90 Ba -3.6188 3.0565 -4.1082 0
M  V30 91 Ba 4.5875 0.0099 -2.6703 0
M  V30 92 Ga 4.3693 0.5971 -4.0061 0
M  V30 93 Ba 4.0532 1.1586 -5.3334 0
M  V30 94 Ba 2.8820 0.7281 -1.0122 0
M  V30 95 Ga 2.7318 1.4211 0.2863 0
M  V30 96 Ba 2.5491 2.1919 1.5359 0
M  V30 97 Ba 2.8041 -0.1687 -7.0608 0
M  V30 98 Ga 2.4685 -1.5906 -6.8541 0
M  V30 99 Ba 2.1061 -2.9979 -6.5990 0
M  V30 END ATOM
M  V30 BEGIN BOND
M  V30 1 1 1 2
M  V30 2 1 1 3
M  V30 3 1 1 4
M  V30 4 1 1 5
M  V30 5 1 6 7
M  V30 6 1 6 8
M  V30 7 1 6 9
M  V30 8 1 6 10
M  V30 9 1 11 12
M  V30 10 1 11 13
M  V30 11 1 11 14
M  V30 12 1 11 15
M  V30 13 1 16 17
M  V30 14 1 16 18
M  V30 15 1 16 19
M  V30 16 1 16 20
M  V30 17 1 21 22
M  V30 18 1 21 23
M  V30 19 1 21 24
M  V30 20 1 21 25
M  V30 21 1 26 27
M  V30 22 1 26 28
M  V30 23 1 26 29
M  V30 24 1 26 30
M  V30 25 1 31 32
M  V30 26 1 31 33
M  V30 27 1 31 34
M  V30 28 1 31 35
M  V30 29 1 36 37
M  V30 30 1 36 38
M  V30 31 1 36 39
M  V30 32 1 36 40
M  V30 33 1 41 42
M  V30 34 1 41 43
M  V30 35 1 41 44
M  V30 36 1 41 45
M  V30 37 1 46 47
M  V30 38 1 47 48
M  V30 39 1 49 50
M  V30 40 1 50 51
M  V30 41 1 52 53
M  V30 42 1 53 54
M  V30 43 1 55 56
M  V30 44 1 56 57
M  V30 45 1 58 59
M  V30 46 1 59 60
M  V30 47 1 61 62
M  V30 48 1 62 63
M  V30 49 1 64 65
M  V30 50 1 65 66
M  V30 51 1 67 68
M  V30 52 1 68 69
M  V30 53 1 70 71
M  V30 54 1 71 72
M  V30 55 1 73 74
M  V30 56 1 74 75
M  V30 57 1 76 77
M  V30 58 1 77 78
M  V30 59 1 79 80
M  V30 60 1 80 81
M  V30 61 1 82 83
M  V30 62 1 83 84
M  V30 63 1 85 86
M  V30 64 1 86 87
M  V30 65 1 88 89
M  V30 66 1 89 90
M  V30 67 1 91 92
M  V30 68 1 92 93
M  V30 69 1 94 95
M  V30 70 1 95 96
M  V30 71 1 97 98
M  V30 72 1 98 99
M  V30 73 1 2 76
M  V30 74 1 3 67
M  V30 75 1 4 91
M  V30 76 1 5 94
M  V30 77 1 7 73
M  V30 78 1 8 55
M  V30 79 1 9 61
M  V30 80 1 10 52
M  V30 81 1 12 58
M  V30 82 1 13 70
M  V30 83 1 14 88
M  V30 84 1 15 49
M  V30 85 1 17 90
M  V30 86 1 18 82
M  V30 87 1 19 46
M  V30 88 1 20 85
M  V30 89 1 22 75
M  V30 90 1 23 72
M  V30 91 1 24 48
M  V30 92 1 25 79
M  V30 93 1 27 84
M  V30 94 1 28 97
M  V30 95 1 29 93
M  V30 96 1 30 87
M  V30 97 1 32 78
M  V30 98 1 33 99
M  V30 99 1 34 51
M  V30 100 1 35 60
M  V30 101 1 37 81
M  V30 102 1 38 64
M  V30 103 1 39 63
M  V30 104 1 40 96
M  V30 105 1 42 57
M  V30 106 1 43 69
M  V30 107 1 44 66
M  V30 108 1 45 54
M  V30 END BOND
M  V30 END CTAB
M  END

$$$$
