
     RDKit          3D

  0  0  0  0  0  0  0  0  0  0999 V3000
M  V30 BEGIN CTAB
M  V30 COUNTS 99 108 0 0 0
M  V30 BEGIN ATOM
M  V30 1 Pd -3.1917 -1.2093 1.2683 0
M  V30 2 Pb -3.9951 -1.7342 0.9887 0
M  V30 3 Pb -2.4037 -0.6763 1.5753 0
M  V30 4 Pb -3.7238 -0.3611 1.2897 0
M  V30 5 Pb -2.6568 -2.0557 1.2041 0
M  V30 6 Pd -3.7814 2.6425 -2.3193 0
M  V30 7 Pb -4.1118 2.5684 -1.3770 0
M  V30 8 Pb -2.9742 3.1606 -2.0332 0
M  V30 9 Pb -4.6415 2.1979 -2.5924 0
M  V30 10 Pb -3.3893 2.6890 -3.2434 0
M  V30 11 Pd -0.1583 -1.3265 -6.9694 0
M  V30 12 Pb -0.0737 -0.3350 -7.0212 0
M  V30 13 Pb -0.4279 -2.2564 -6.7072 0
M  V30 14 Pb 0.8049 -1.4891 -6.7521 0
M  V30 15 Pb -1.0972 -1.1846 -7.2506 0
M  V30 16 Pd 3.7235 2.2788 6.7634 0
M  V30 17 Pb 4.3538 1.6104 6.3715 0
M  V30 18 Pb 2.8759 2.7503 7.0284 0
M  V30 19 Pb 3.7642 2.8712 5.9581 0
M  V30 20 Pb 3.6674 1.7414 7.6023 0
M  V30 21 Pd 1.6666 -3.4173 2.7059 0
M  V30 22 Pb 0.8838 -3.7574 2.1873 0
M  V30 23 Pb 2.4444 -3.0150 3.2017 0
M  V30 24 Pb 2.2638 -3.6195 1.9272 0
M  V30 25 Pb 1.0250 -3.3028 3.4674 0
M  V30 26 Pd 3.8759 4.1214 -0.7973 0
M  V30 27 Pb 3.7800 4.4862 0.1264 0
M  V30 28 Pb 4.8075 3.8828 -0.5546 0
M  V30 29 Pb 3.9947 3.6718 -1.7065 0
M  V30 30 Pb 2.9210 4.3530 -0.9861 0
M  V30 31 Pd -0.9982 0.1558 6.1334 0
M  V30 32 Pb -0.9129 0.4137 5.1697 0
M  V30 33 Pb -1.1184 -0.7971 5.8668 0
M  V30 34 Pb -0.7274 1.0856 6.4275 0
M  V30 35 Pb -0.9760 -0.1354 7.0877 0
M  V30 36 Pd 4.8070 -0.9599 -3.5304 0
M  V30 37 Pb 4.7244 0.0334 -3.7344 0
M  V30 38 Pb 4.2340 -1.2187 -4.3104 0
M  V30 39 Pb 4.7758 -1.8866 -3.1649 0
M  V30 40 Pb 5.5026 -0.7569 -2.8547 0
M  V30 41 Pd -5.9438 -2.2234 -3.3677 0
M  V30 42 Pb -5.9066 -1.9231 -4.3104 0
M  V30 43 Pb -5.9936 -2.5225 -2.4158 0
M  V30 44 Pb -5.3108 -2.9615 -3.6255 0
M  V30 45 Pb -6.4225 -1.3734 -3.1594 0
M  V30 46 Ag 3.7495 3.3714 5.3983 0
M  V30 47 Fe 3.7466 4.0318 3.1175 0
M  V30 48 Ag 3.7462 4.7059 0.8406 0
M  V30 49 Ag 3.4575 1.3445 8.1945 0
M  V30 50 Fe 1.3982 0.2707 8.5805 0
M  V30 51 Ag -0.7360 -0.3004 7.7696 0
M  V30 52 Ag -2.9803 2.7462 -3.8764 0
M  V30 53 Fe -1.5673 1.7052 -5.4827 0
M  V30 54 Ag -0.2273 0.3940 -6.9465 0
M  V30 55 Ag -2.3868 3.6003 -1.8724 0
M  V30 56 Fe -0.0803 4.0130 -1.4782 0
M  V30 57 Ag 2.1994 4.5428 -1.0688 0
M  V30 58 Ag -0.7771 -2.8597 -6.4169 0
M  V30 59 Fe -2.7395 -3.3297 -5.1484 0
M  V30 60 Ag -4.7645 -3.4119 -3.8936 0
M  V30 61 Ag 2.6785 -3.8101 1.3294 0
M  V30 62 Fe 3.7215 -3.2539 -0.7307 0
M  V30 63 Ag 4.7021 -2.5118 -2.7623 0
M  V30 64 Ag -1.8133 -1.0973 -7.4127 0
M  V30 65 Fe -3.9449 -1.3217 -6.4279 0
M  V30 66 Ag -5.7871 -1.7027 -5.0050 0
M  V30 67 Ag 5.4536 3.5597 -0.4090 0
M  V30 68 Fe 6.2372 1.4703 -1.1393 0
M  V30 69 Ag 6.0123 -0.5112 -2.3805 0
M  V30 70 Ag 4.6623 1.0090 6.0450 0
M  V30 71 Fe 3.9618 -0.8786 4.7764 0
M  V30 72 Ag 3.0415 -2.6831 3.5266 0
M  V30 73 Ba 1.5302 -1.6599 -6.6623 0
M  V30 74 Ga 2.6641 -1.5043 -5.7295 0
M  V30 75 Ba 3.9143 -1.4641 -4.9453 0
M  V30 76 Ba -1.8497 -0.2314 1.8151 0
M  V30 77 Ga -1.3273 0.1665 3.1371 0
M  V30 78 Ba -0.7887 0.5804 4.4475 0
M  V30 79 Ba -5.3354 1.9177 -2.7035 0
M  V30 80 Ga -6.0130 0.6154 -2.8858 0
M  V30 81 Ba -6.6976 -0.6823 -3.0750 0
M  V30 82 Ba -4.5883 -2.1485 0.7929 0
M  V30 83 Ga -5.3129 -2.4372 -0.4578 0
M  V30 84 Ba -6.0481 -2.7360 -1.7000 0
M  V30 85 Ba 4.1073 3.3537 -2.3998 0
M  V30 86 Ga 4.3695 2.0389 -3.0712 0
M  V30 87 Ba 4.6335 0.7870 -3.8534 0
M  V30 88 Ba 0.4693 -3.3050 3.9760 0
M  V30 89 Ga -0.3161 -2.3898 4.8264 0
M  V30 90 Ba -1.1330 -1.5256 5.7004 0
M  V30 91 Ba -2.2978 -2.7121 1.1159 0
M  V30 92 Ga -1.0061 -3.3331 1.4714 0
M  V30 93 Ba 0.2759 -3.9818 1.8120 0
M  V30 94 Ba 2.1773 3.0152 7.1548 0
M  V30 95 Ga 0.8384 2.4032 6.9237 0
M  V30 96 Ba -0.4852 1.7633 6.6800 0
M  V30 97 Ba -4.0937 0.2932 1.2946 0
M  V30 98 Ga -4.2411 1.3927 0.3192 0
M  V30 99 Ba -4.3697 2.4754 -0.6775 0
M  V30 END ATOM
M  V30 BEGIN BOND
M  V30 1 1 1 2
M  V30 2 1 1 3
M  V30 3 1 1 4
M  V30 4 1 1 5
M  V30 5 1 6 7
M  V30 6 1 6 8
M  V30 7 1 6 9
M  V30 8 1 6 10
M  V30 9 1 11 12
M  V30 10 1 11 13
M  V30 11 1 11 14
M  V30 12 1 11 15
M  V30 13 1 16 17
M  V30 14 1 16 18
M  V30 15 1 16 19
M  V30 16 1 16 20
M  V30 17 1 21 22
M  V30 18 1 21 23
M  V30 19 1 21 24
M  V30 20 1 21 25
M  V30 21 1 26 27
M  V30 22 1 26 28
M  V30 23 1 26 29
M  V30 24 1 26 30
M  V30 25 1 31 32
M  V30 26 1 31 33
M  V30 27 1 31 34
M  V30 28 1 31 35
M  V30 29 1 36 37
M  V30 30 1 36 38
M  V30 31 1 36 39
M  V30 32 1 36 40
M  V30 33 1 41 42
M  V30 34 1 41 43
M  V30 35 1 41 44
M  V30 36 1 41 45
M  V30 37 1 46 47
M  V30 38 1 47 48
M  V30 39 1 49 50
M  V30 40 1 50 51
M  V30 41 1 52 53
M  V30 42 1 53 54
M  V30 43 1 55 56
M  V30 44 1 56 57
M  V30 45 1 58 59
M  V30 46 1 59 60
M  V30 47 1 61 62
M  V30 48 1 62 63
M  V30 49 1 64 65
M  V30 50 1 65 66
M  V30 51 1 67 68
M  V30 52 1 68 69
M  V30 53 1 70 71
M  V30 54 1 71 72
M  V30 55 1 73 74
M  V30 56 1 74 75
M  V30 57 1 76 77
M  V30 58 1 77 78
M  V30 59 1 79 80
M  V30 60 1 80 81
M  V30 61 1 82 83
M  V30 62 1 83 84
M  V30 63 1 85 86
M  V30 64 1 86 87
M  V30 65 1 88 89
M  V30 66 1 89 90
M  V30 67 1 91 92
M  V30 68 1 92 93
M  V30 69 1 94 95
M  V30 70 1 95 96
M  V30 71 1 97 98
M  V30 72 1 98 99
M  V30 73 1 2 82
M  V30 74 1 3 76
M  V30 75 1 4 97
M  V30 76 1 5 91
M  V30 77 1 7 99
M  V30 78 1 8 55
M  V30 79 1 9 79
M  V30 80 1 10 52
M  V30 81 1 12 54
M  V30 82 1 13 58
M  V30 83 1 14 73
M  V30 84 1 15 64
M  V30 85 1 17 70
M  V30 86 1 18 94
M  V30 87 1 19 46
M  V30 88 1 20 49
M  V30 89 1 22 93
M  V30 90 1 23 72
M  V30 91 1 24 61
M  V30 92 1 25 88
M  V30 93 1 27 48
M  V30 94 1 28 67
M  V30 95 1 29 85
M  V30 96 1 30 57
M  V30 97 1 32 78
M  V30 98 1 33 90
M  V30 99 1 34 96
M  V30 100 1 35 51
M  V30 101 1 37 87
M  V30 102 1 38 75
M  V30 103 1 39 63
M  V30 104 1 40 69
M  V30 105 1 42 66
M  V30 106 1 43 84
M  V30 107 1 44 60
M  V30 108 1 45 81
M  V30 END BOND
M  V30 END CTAB
M  END

$$$$
