
     RDKit          3D

  0  0  0  0  0  0  0  0  0  0999 V3000
M  V30 BEGIN CTAB
M  V30 COUNTS 99 108 0 0 0
M  V30 BEGIN ATOM
M  V30 1 Pd -6.7137 -2.9653 5.0527 0
M  V30 2 Pb -5.8347 -2.9193 5.5222 0
M  V30 3 Pb -7.0370 -2.1158 5.4680 0
M  V30 4 Pb -7.5480 -2.9479 4.4919 0
M  V30 5 Pb -6.3833 -3.6825 4.4398 0
M  V30 6 Pd 1.5417 0.6866 -0.1034 0
M  V30 7 Pb 1.3350 0.5430 -1.0648 0
M  V30 8 Pb 1.7404 0.7754 0.8745 0
M  V30 9 Pb 0.7999 1.3633 -0.0611 0
M  V30 10 Pb 2.2570 -0.0039 -0.2002 0
M  V30 11 Pd 4.5381 2.3376 -4.0482 0
M  V30 12 Pb 3.9745 1.5099 -4.0747 0
M  V30 13 Pb 5.3370 1.8118 -4.3458 0
M  V30 14 Pb 5.0203 3.2002 -4.1680 0
M  V30 15 Pb 3.8183 2.8463 -3.5465 0
M  V30 16 Pd 6.9447 0.6546 -0.5584 0
M  V30 17 Pb 7.3314 0.4334 -1.4562 0
M  V30 18 Pb 7.6753 1.2981 -0.3421 0
M  V30 19 Pb 6.2289 -0.0277 -0.6915 0
M  V30 20 Pb 6.4387 1.0012 0.2457 0
M  V30 21 Pd 0.5511 -2.7948 3.1773 0
M  V30 22 Pb 1.2120 -2.9063 2.4390 0
M  V30 23 Pb 1.0352 -1.9734 3.4755 0
M  V30 24 Pb -0.0948 -2.7189 3.9362 0
M  V30 25 Pb 0.0094 -3.5370 2.7780 0
M  V30 26 Pd -8.0876 -0.4914 0.3131 0
M  V30 27 Pb -8.5133 -1.1171 0.9790 0
M  V30 28 Pb -7.6423 0.1390 -0.3224 0
M  V30 29 Pb -8.3682 0.2526 0.9187 0
M  V30 30 Pb -7.6874 -1.3022 -0.1122 0
M  V30 31 Pd -0.3345 -3.4644 -1.8332 0
M  V30 32 Pb -0.7379 -3.9719 -1.0674 0
M  V30 33 Pb -1.2162 -3.4093 -2.3099 0
M  V30 34 Pb 0.5412 -3.4836 -1.3574 0
M  V30 35 Pb 0.1143 -2.9526 -2.5647 0
M  V30 36 Pd 4.4525 5.3964 0.5986 0
M  V30 37 Pb 5.2766 5.6570 1.0948 0
M  V30 38 Pb 4.5737 6.2038 0.0290 0
M  V30 39 Pb 3.7512 5.0559 -0.0510 0
M  V30 40 Pb 4.4808 4.5015 1.0672 0
M  V30 41 Pd -3.1051 0.5830 -2.4146 0
M  V30 42 Pb -2.7199 1.3502 -1.8958 0
M  V30 43 Pb -4.0401 0.8727 -2.2002 0
M  V30 44 Pb -3.4204 -0.2671 -2.8328 0
M  V30 45 Pb -2.1884 0.3615 -2.7337 0
M  V30 46 Ag -7.3230 -1.4278 5.5278 0
M  V30 47 Fe -8.0550 -0.0025 3.7822 0
M  V30 48 Ag -8.4911 0.6429 1.5444 0
M  V30 49 Ag -5.1436 -2.8608 5.8013 0
M  V30 50 Fe -2.8422 -2.7696 5.2292 0
M  V30 51 Ag -0.5840 -2.6927 4.5033 0
M  V30 52 Ag 5.2558 3.9046 -4.1978 0
M  V30 53 Fe 5.1979 5.7076 -2.6818 0
M  V30 54 Ag 4.7737 6.6156 -0.5514 0
M  V30 55 Ag -6.2190 -4.0518 3.8106 0
M  V30 56 Fe -6.6079 -3.3853 1.5701 0
M  V30 57 Ag -7.3559 -1.9690 -0.1761 0
M  V30 58 Ag 3.5244 0.9192 -4.1932 0
M  V30 59 Fe 2.0132 -0.8138 -3.5946 0
M  V30 60 Ag 0.5002 -2.5730 -3.0831 0
M  V30 61 Ag 8.1001 1.8436 -0.0665 0
M  V30 62 Fe 7.5363 3.9585 0.8133 0
M  V30 63 Ag 5.9886 5.6688 1.3008 0
M  V30 64 Ba -7.3211 0.6361 -0.7825 0
M  V30 65 Ga -6.0068 0.8435 -1.4221 0
M  V30 66 Ba -4.7349 1.1458 -2.1076 0
M  V30 67 Ba 1.1520 0.3951 -1.7702 0
M  V30 68 Ga -0.1599 0.3061 -2.4208 0
M  V30 69 Ba -1.5046 0.2348 -3.0032 0
M  V30 70 Ba 1.8910 0.7858 1.6110 0
M  V30 71 Ga 1.6600 -0.2264 2.6601 0
M  V30 72 Ba 1.3716 -1.3178 3.6107 0
M  V30 73 Ba -8.1537 -2.9172 4.0410 0
M  V30 74 Ga -8.4814 -2.2419 2.7605 0
M  V30 75 Ba -8.8408 -1.5810 1.4810 0
M  V30 76 Ba 5.9615 1.4030 -4.4398 0
M  V30 77 Ga 6.8077 0.8241 -3.3730 0
M  V30 78 Ba 7.5230 0.3278 -2.1765 0
M  V30 79 Ba 1.6916 -3.0165 1.8770 0
M  V30 80 Ga 1.4829 -3.2461 0.4399 0
M  V30 81 Ba 1.1871 -3.4683 -0.9829 0
M  V30 82 Ba 0.2343 1.8635 -0.0832 0
M  V30 83 Ga -1.0810 1.8921 -0.7652 0
M  V30 84 Ba -2.3862 1.8721 -1.4664 0
M  V30 85 Ba 3.3067 3.2191 -3.1165 0
M  V30 86 Ga 3.3091 4.0088 -1.8461 0
M  V30 87 Ba 3.2587 4.8048 -0.5809 0
M  V30 88 Ba 6.0143 1.2832 0.8123 0
M  V30 89 Ga 5.2962 2.5592 1.0951 0
M  V30 90 Ba 4.5688 3.8239 1.4035 0
M  V30 91 Ba 2.7746 -0.5286 -0.3346 0
M  V30 92 Ga 4.2342 -0.5402 -0.5333 0
M  V30 93 Ba 5.6940 -0.5492 -0.7307 0
M  V30 94 Ba -0.4135 -4.0455 2.4194 0
M  V30 95 Ga -0.7218 -4.2265 0.9837 0
M  V30 96 Ba -0.9880 -4.3514 -0.4664 0
M  V30 97 Ba -1.8733 -3.3358 -2.6720 0
M  V30 98 Ga -2.7598 -2.1787 -2.9136 0
M  V30 99 Ba -3.5671 -0.9545 -3.0918 0
M  V30 END ATOM
M  V30 BEGIN BOND
M  V30 1 1 1 2
M  V30 2 1 1 3
M  V30 3 1 1 4
M  V30 4 1 1 5
M  V30 5 1 6 7
M  V30 6 1 6 8
M  V30 7 1 6 9
M  V30 8 1 6 10
M  V30 9 1 11 12
M  V30 10 1 11 13
M  V30 11 1 11 14
M  V30 12 1 11 15
M  V30 13 1 16 17
M  V30 14 1 16 18
M  V30 15 1 16 19
M  V30 16 1 16 20
M  V30 17 1 21 22
M  V30 18 1 21 23
M  V30 19 1 21 24
M  V30 20 1 21 25
M  V30 21 1 26 27
M  V30 22 1 26 28
M  V30 23 1 26 29
M  V30 24 1 26 30
M  V30 25 1 31 32
M  V30 26 1 31 33
M  V30 27 1 31 34
M  V30 28 1 31 35
M  V30 29 1 36 37
M  V30 30 1 36 38
M  V30 31 1 36 39
M  V30 32 1 36 40
M  V30 33 1 41 42
M  V30 34 1 41 43
M  V30 35 1 41 44
M  V30 36 1 41 45
M  V30 37 1 46 47
M  V30 38 1 47 48
M  V30 39 1 49 50
M  V30 40 1 50 51
M  V30 41 1 52 53
M  V30 42 1 53 54
M  V30 43 1 55 56
M  V30 44 1 56 57
M  V30 45 1 58 59
M  V30 46 1 59 60
M  V30 47 1 61 62
M  V30 48 1 62 63
M  V30 49 1 64 65
M  V30 50 1 65 66
M  V30 51 1 67 68
M  V30 52 1 68 69
M  V30 53 1 70 71
M  V30 54 1 71 72
M  V30 55 1 73 74
M  V30 56 1 74 75
M  V30 57 1 76 77
M  V30 58 1 77 78
M  V30 59 1 79 80
M  V30 60 1 80 81
M  V30 61 1 82 83
M  V30 62 1 83 84
M  V30 63 1 85 86
M  V30 64 1 86 87
M  V30 65 1 88 89
M  V30 66 1 89 90
M  V30 67 1 91 92
M  V30 68 1 92 93
M  V30 69 1 94 95
M  V30 70 1 95 96
M  V30 71 1 97 98
M  V30 72 1 98 99
M  V30 73 1 2 49
M  V30 74 1 3 46
M  V30 75 1 4 73
M  V30 76 1 5 55
M  V30 77 1 7 67
M  V30 78 1 8 70
M  V30 79 1 9 82
M  V30 80 1 10 91
M  V30 81 1 12 58
M  V30 82 1 13 76
M  V30 83 1 14 52
M  V30 84 1 15 85
M  V30 85 1 17 78
M  V30 86 1 18 61
M  V30 87 1 19 93
M  V30 88 1 20 88
M  V30 89 1 22 79
M  V30 90 1 23 72
M  V30 91 1 24 51
M  V30 92 1 25 94
M  V30 93 1 27 75
M  V30 94 1 28 64
M  V30 95 1 29 48
M  V30 96 1 30 57
M  V30 97 1 32 96
M  V30 98 1 33 97
M  V30 99 1 34 81
M  V30 100 1 35 60
M  V30 101 1 37 63
M  V30 102 1 38 54
M  V30 103 1 39 87
M  V30 104 1 40 90
M  V30 105 1 42 84
M  V30 106 1 43 66
M  V30 107 1 44 99
M  V30 108 1 45 69
M  V30 END BOND
M  V30 END CTAB
M  END

$$$$
