
     RDKit          3D

  0  0  0  0  0  0  0  0  0  0999 V3000
M  V30 BEGIN CTAB
M  V30 COUNTS 99 108 0 0 0
M  V30 BEGIN ATOM
M  V30 1 Pd 0.9971 -4.9507 0.6337 0
M  V30 2 Pb -0.0002 -4.8935 0.5736 0
M  V30 3 Pb 1.0272 -5.2442 -0.3207 0
M  V30 4 Pb 0.9713 -4.7669 1.6183 0
M  V30 5 Pb 1.9976 -4.9527 0.6535 0
M  V30 6 Pd 1.8926 1.2921 -7.7853 0
M  V30 7 Pb 1.1330 1.5353 -7.1833 0
M  V30 8 Pb 1.3257 0.6336 -8.2769 0
M  V30 9 Pb 2.5415 1.7103 -7.1552 0
M  V30 10 Pb 2.6706 0.9537 -8.3076 0
M  V30 11 Pd -5.2102 4.0782 0.9127 0
M  V30 12 Pb -5.8159 3.5837 1.5292 0
M  V30 13 Pb -4.6278 4.6101 0.2933 0
M  V30 14 Pb -4.9865 4.6827 1.6757 0
M  V30 15 Pb -5.3939 3.3851 0.2099 0
M  V30 16 Pd -0.2186 4.6639 6.5548 0
M  V30 17 Pb -1.1060 4.9770 6.2163 0
M  V30 18 Pb -0.6409 3.9717 7.1664 0
M  V30 19 Pb 0.1972 5.2225 5.8421 0
M  V30 20 Pb 0.6783 4.3776 6.8741 0
M  V30 21 Pd -0.0910 3.9739 -0.8496 0
M  V30 22 Pb -0.3569 3.4921 -1.6845 0
M  V30 23 Pb -0.8338 4.6199 -1.0212 0
M  V30 24 Pb 0.1961 4.5091 -0.0547 0
M  V30 25 Pb 0.5987 3.2827 -0.6225 0
M  V30 26 Pd -0.5216 -1.0910 7.2965 0
M  V30 27 Pb -0.8502 -0.2004 7.6638 0
M  V30 28 Pb -1.4481 -1.3572 7.0320 0
M  V30 29 Pb -0.1760 -1.9226 6.8627 0
M  V30 30 Pb 0.4053 -0.8387 7.5525 0
M  V30 31 Pd -5.6261 -0.9823 1.7223 0
M  V30 32 Pb -5.1240 -1.7481 1.3183 0
M  V30 33 Pb -5.4881 -1.3807 2.6273 0
M  V30 34 Pb -5.7100 -0.5086 0.8404 0
M  V30 35 Pb -6.1411 -0.2433 2.1455 0
M  V30 36 Pd 4.8457 -2.0605 -2.0069 0
M  V30 37 Pb 4.3791 -1.4273 -1.3880 0
M  V30 38 Pb 5.3200 -2.6975 -2.6234 0
M  V30 39 Pb 4.9168 -1.2901 -2.6456 0
M  V30 40 Pb 4.7866 -2.7992 -1.3299 0
M  V30 41 Pd 3.8467 -4.8382 -6.5863 0
M  V30 42 Pb 3.0580 -4.6572 -7.1774 0
M  V30 43 Pb 3.2622 -5.3108 -5.9305 0
M  V30 44 Pb 4.6182 -4.8764 -5.9500 0
M  V30 45 Pb 4.3859 -4.2913 -7.2213 0
M  V30 46 Ag 0.5882 1.6674 -6.6858 0
M  V30 47 Fe -0.0143 2.4252 -4.5173 0
M  V30 48 Ag -0.5682 3.1922 -2.3389 0
M  V30 49 Ag -0.7428 -4.8260 0.4847 0
M  V30 50 Fe -2.7475 -3.5837 0.7737 0
M  V30 51 Ag -4.7580 -2.3496 1.0571 0
M  V30 52 Ag 1.0875 2.7594 -0.3907 0
M  V30 53 Fe 2.5570 0.9172 -0.7028 0
M  V30 54 Ag 4.0413 -0.9235 -0.9453 0
M  V30 55 Ag 0.4615 5.5565 5.2288 0
M  V30 56 Fe 0.4925 5.3190 2.8676 0
M  V30 57 Ag 0.4205 4.9252 0.5281 0
M  V30 58 Ag 3.2439 0.5828 -8.6055 0
M  V30 59 Fe 4.1969 -1.5690 -8.3492 0
M  V30 60 Ag 4.6823 -3.7887 -7.6849 0
M  V30 61 Ag 1.0333 -0.0037 -8.5396 0
M  V30 62 Fe 1.5628 -2.2989 -8.2333 0
M  V30 63 Ag 2.4968 -4.3896 -7.6002 0
M  V30 64 Ag 1.2869 4.0313 7.1143 0
M  V30 65 Fe 1.6758 1.7546 7.5699 0
M  V30 66 Ag 1.0507 -0.5109 7.7069 0
M  V30 67 Ag -4.8091 5.0571 2.2998 0
M  V30 68 Fe -3.3035 5.2058 4.1300 0
M  V30 69 Ag -1.7328 5.2535 5.9104 0
M  V30 70 Ag 3.0659 1.8384 -6.6379 0
M  V30 71 Fe 4.0701 0.6800 -4.8223 0
M  V30 72 Ag 4.9338 -0.6609 -3.0602 0
M  V30 73 Ag 0.9663 -4.6995 2.3674 0
M  V30 74 Fe 0.5165 -3.5910 4.4204 0
M  V30 75 Ag 0.0875 -2.5231 6.4993 0
M  V30 76 Ag 1.0562 -5.5242 -1.0149 0
M  V30 77 Fe 1.9273 -5.5732 -3.2219 0
M  V30 78 Ag 2.8002 -5.6161 -5.4283 0
M  V30 79 Ag -2.1276 -1.5814 6.8088 0
M  V30 80 Fe -3.7759 -1.6397 5.1016 0
M  V30 81 Ag -5.3445 -1.6250 3.3200 0
M  V30 82 Ba -0.9548 3.4328 7.6111 0
M  V30 83 Ga -0.9909 1.9421 7.7357 0
M  V30 84 Ba -1.0984 0.4658 7.9534 0
M  V30 85 Ba -5.5282 2.8162 -0.2673 0
M  V30 86 Ga -5.6513 1.3535 -0.0611 0
M  V30 87 Ba -5.7638 -0.0999 0.2078 0
M  V30 88 Ba -6.2678 3.2074 1.9875 0
M  V30 89 Ga -6.4248 1.7722 2.2510 0
M  V30 90 Ba -6.5165 0.3215 2.4540 0
M  V30 91 Ba 2.7481 -4.9350 0.6445 0
M  V30 92 Ga 3.7518 -4.1377 -0.0916 0
M  V30 93 Ba 4.7716 -3.3515 -0.8174 0
M  V30 94 Ba 5.6856 -3.2089 -3.0424 0
M  V30 95 Ga 5.4319 -4.0203 -4.2537 0
M  V30 96 Ba 5.1901 -4.8357 -5.4647 0
M  V30 97 Ba -4.2089 5.0375 -0.1636 0
M  V30 98 Ga -2.8147 5.0547 -0.6502 0
M  V30 99 Ba -1.4207 5.0714 -1.1372 0
M  V30 END ATOM
M  V30 BEGIN BOND
M  V30 1 1 1 2
M  V30 2 1 1 3
M  V30 3 1 1 4
M  V30 4 1 1 5
M  V30 5 1 6 7
M  V30 6 1 6 8
M  V30 7 1 6 9
M  V30 8 1 6 10
M  V30 9 1 11 12
M  V30 10 1 11 13
M  V30 11 1 11 14
M  V30 12 1 11 15
M  V30 13 1 16 17
M  V30 14 1 16 18
M  V30 15 1 16 19
M  V30 16 1 16 20
M  V30 17 1 21 22
M  V30 18 1 21 23
M  V30 19 1 21 24
M  V30 20 1 21 25
M  V30 21 1 26 27
M  V30 22 1 26 28
M  V30 23 1 26 29
M  V30 24 1 26 30
M  V30 25 1 31 32
M  V30 26 1 31 33
M  V30 27 1 31 34
M  V30 28 1 31 35
M  V30 29 1 36 37
M  V30 30 1 36 38
M  V30 31 1 36 39
M  V30 32 1 36 40
M  V30 33 1 41 42
M  V30 34 1 41 43
M  V30 35 1 41 44
M  V30 36 1 41 45
M  V30 37 1 46 47
M  V30 38 1 47 48
M  V30 39 1 49 50
M  V30 40 1 50 51
M  V30 41 1 52 53
M  V30 42 1 53 54
M  V30 43 1 55 56
M  V30 44 1 56 57
M  V30 45 1 58 59
M  V30 46 1 59 60
M  V30 47 1 61 62
M  V30 48 1 62 63
M  V30 49 1 64 65
M  V30 50 1 65 66
M  V30 51 1 67 68
M  V30 52 1 68 69
M  V30 53 1 70 71
M  V30 54 1 71 72
M  V30 55 1 73 74
M  V30 56 1 74 75
M  V30 57 1 76 77
M  V30 58 1 77 78
M  V30 59 1 79 80
M  V30 60 1 80 81
M  V30 61 1 82 83
M  V30 62 1 83 84
M  V30 63 1 85 86
M  V30 64 1 86 87
M  V30 65 1 88 89
M  V30 66 1 89 90
M  V30 67 1 91 92
M  V30 68 1 92 93
M  V30 69 1 94 95
M  V30 70 1 95 96
M  V30 71 1 97 98
M  V30 72 1 98 99
M  V30 73 1 2 49
M  V30 74 1 3 76
M  V30 75 1 4 73
M  V30 76 1 5 91
M  V30 77 1 7 46
M  V30 78 1 8 61
M  V30 79 1 9 70
M  V30 80 1 10 58
M  V30 81 1 12 88
M  V30 82 1 13 97
M  V30 83 1 14 67
M  V30 84 1 15 85
M  V30 85 1 17 69
M  V30 86 1 18 82
M  V30 87 1 19 55
M  V30 88 1 20 64
M  V30 89 1 22 48
M  V30 90 1 23 99
M  V30 91 1 24 57
M  V30 92 1 25 52
M  V30 93 1 27 84
M  V30 94 1 28 79
M  V30 95 1 29 75
M  V30 96 1 30 66
M  V30 97 1 32 51
M  V30 98 1 33 81
M  V30 99 1 34 87
M  V30 100 1 35 90
M  V30 101 1 37 54
M  V30 102 1 38 94
M  V30 103 1 39 72
M  V30 104 1 40 93
M  V30 105 1 42 63
M  V30 106 1 43 78
M  V30 107 1 44 96
M  V30 108 1 45 60
M  V30 END BOND
M  V30 END CTAB
M  END

$$$$
