
     RDKit          3D

  0  0  0  0  0  0  0  0  0  0999 V3000
M  V30 BEGIN CTAB
M  V30 COUNTS 99 108 0 0 0
M  V30 BEGIN ATOM
M  V30 1 Pd 4.1044 -0.1118 -0.1904 0
M  V30 2 Pb 4.1010 -0.4605 -1.1343 0
M  V30 3 Pb 4.8847 -0.6737 0.0848 0
M  V30 4 Pb 3.2646 0.3939 -0.3753 0
M  V30 5 Pb 4.0822 0.1769 0.7631 0
M  V30 6 Pd 0.2893 3.3526 2.4307 0
M  V30 7 Pb -0.1355 4.0126 3.0427 0
M  V30 8 Pb -0.3078 2.6499 2.8207 0
M  V30 9 Pb 0.5704 2.7595 1.6731 0
M  V30 10 Pb 0.7944 4.0968 2.0034 0
M  V30 11 Pd -4.2732 3.7262 1.5887 0
M  V30 12 Pb -4.7967 3.0570 1.0601 0
M  V30 13 Pb -4.0269 3.0146 2.2461 0
M  V30 14 Pb -4.3654 4.3951 0.8484 0
M  V30 15 Pb -3.7767 4.3784 2.1647 0
M  V30 16 Pd 1.2644 0.5006 -5.0745 0
M  V30 17 Pb 1.8561 1.3043 -5.0134 0
M  V30 18 Pb 0.6532 -0.2841 -5.2093 0
M  V30 19 Pb 0.5631 1.0776 -5.5003 0
M  V30 20 Pb 1.9817 -0.0629 -4.6485 0
M  V30 21 Pd -4.8153 -1.4682 2.2253 0
M  V30 22 Pb -4.3025 -2.0708 2.8671 0
M  V30 23 Pb -4.7426 -2.1525 1.5020 0
M  V30 24 Pb -5.2615 -0.8451 1.5821 0
M  V30 25 Pb -4.8615 -0.7696 2.9307 0
M  V30 26 Pd -0.0582 5.3999 -4.1956 0
M  V30 27 Pb -0.4848 4.8192 -4.8875 0
M  V30 28 Pb 0.8354 5.0552 -4.4804 0
M  V30 29 Pb -0.9510 5.6790 -3.8320 0
M  V30 30 Pb 0.3933 5.8869 -3.4540 0
M  V30 31 Pd 3.6305 -4.7132 1.2201 0
M  V30 32 Pb 2.8312 -5.1839 0.8059 0
M  V30 33 Pb 3.1900 -4.7411 2.1238 0
M  V30 34 Pb 4.0874 -4.7308 0.3395 0
M  V30 35 Pb 4.4222 -4.1912 1.5311 0
M  V30 36 Pd 0.1427 -2.1834 5.2594 0
M  V30 37 Pb 0.6575 -2.9933 4.9603 0
M  V30 38 Pb -0.3490 -1.3924 5.6058 0
M  V30 39 Pb 0.9876 -1.6596 5.3078 0
M  V30 40 Pb -0.7492 -2.6338 5.0762 0
M  V30 41 Pd -0.2910 -4.5237 -3.1802 0
M  V30 42 Pb -0.5984 -3.9393 -3.9283 0
M  V30 43 Pb 0.6006 -4.5706 -3.6138 0
M  V30 44 Pb 0.0600 -5.0497 -2.3836 0
M  V30 45 Pb -1.1924 -4.4899 -2.7514 0
M  V30 46 Ag 4.0620 0.2953 1.4996 0
M  V30 47 Fe 2.9379 -0.3540 3.4812 0
M  V30 48 Ag 1.5828 -1.2207 5.2203 0
M  V30 49 Ag 1.0891 4.6588 1.6129 0
M  V30 50 Fe 1.0499 5.5770 -0.5694 0
M  V30 51 Ag 0.7381 6.1457 -2.8467 0
M  V30 52 Ag -4.6704 -2.6446 0.9429 0
M  V30 53 Fe -3.2886 -3.5796 -0.7449 0
M  V30 54 Ag -1.8615 -4.4773 -2.4153 0
M  V30 55 Ag 4.3310 -4.7418 -0.3582 0
M  V30 56 Fe 3.2236 -4.6928 -2.4321 0
M  V30 57 Ag 1.3139 -4.6054 -3.8006 0
M  V30 58 Ag -4.7407 -0.2998 3.4886 0
M  V30 59 Fe -2.8973 -0.1637 4.9457 0
M  V30 60 Ag -0.8075 -0.8415 5.7917 0
M  V30 61 Ag -4.3475 4.8480 0.2477 0
M  V30 62 Fe -3.0499 5.4287 -1.6598 0
M  V30 63 Ag -1.6035 5.8570 -3.4994 0
M  V30 64 Ba 2.2420 -5.5526 0.4848 0
M  V30 65 Ga 1.2960 -5.4418 -0.6676 0
M  V30 66 Ba 0.2921 -5.4546 -1.7753 0
M  V30 67 Ba 2.2693 1.9302 -5.0127 0
M  V30 68 Ga 1.9211 3.3519 -4.8344 0
M  V30 69 Ba 1.5008 4.7525 -4.6447 0
M  V30 70 Ba 5.4080 -1.0983 0.4168 0
M  V30 71 Ga 5.2933 -2.4310 1.0410 0
M  V30 72 Ba 5.0345 -3.7672 1.6117 0
M  V30 73 Ba 0.1537 -0.8238 -5.3763 0
M  V30 74 Ga -0.3010 -2.1486 -4.9089 0
M  V30 75 Ba -0.7913 -3.4745 -4.4817 0
M  V30 76 Ba -5.2026 2.5415 0.6953 0
M  V30 77 Ga -5.3962 1.0897 0.8772 0
M  V30 78 Ba -5.5616 -0.3610 1.0932 0
M  V30 79 Ba 0.0422 1.5177 -5.8194 0
M  V30 80 Ga -0.3829 2.9184 -5.6250 0
M  V30 81 Ba -0.7589 4.3250 -5.3792 0
M  V30 82 Ba 2.8578 -4.8388 2.7953 0
M  V30 83 Ga 1.9514 -4.1627 3.7523 0
M  V30 84 Ba 1.0577 -3.6126 4.7980 0
M  V30 85 Ba -0.8287 2.1911 3.1085 0
M  V30 86 Ga -2.2952 2.2641 2.9559 0
M  V30 87 Ba -3.7298 2.4884 2.6902 0
M  V30 88 Ba -0.5617 4.5181 3.3872 0
M  V30 89 Ga -1.9854 4.7392 3.0815 0
M  V30 90 Ba -3.3903 4.8109 2.6434 0
M  V30 91 Ba 4.0821 -0.7510 -1.8323 0
M  V30 92 Ga 3.2915 -0.5828 -3.0764 0
M  V30 93 Ba 2.5458 -0.4726 -4.3541 0
M  V30 94 Ba 2.6063 0.7304 -0.4876 0
M  V30 95 Ga 1.6911 1.5660 0.3143 0
M  V30 96 Ba 0.7021 2.3999 1.0245 0
M  V30 97 Ba -3.9375 -2.5425 3.3519 0
M  V30 98 Ga -2.6586 -2.6927 4.1145 0
M  V30 99 Ba -1.4271 -2.9564 4.9232 0
M  V30 END ATOM
M  V30 BEGIN BOND
M  V30 1 1 1 2
M  V30 2 1 1 3
M  V30 3 1 1 4
M  V30 4 1 1 5
M  V30 5 1 6 7
M  V30 6 1 6 8
M  V30 7 1 6 9
M  V30 8 1 6 10
M  V30 9 1 11 12
M  V30 10 1 11 13
M  V30 11 1 11 14
M  V30 12 1 11 15
M  V30 13 1 16 17
M  V30 14 1 16 18
M  V30 15 1 16 19
M  V30 16 1 16 20
M  V30 17 1 21 22
M  V30 18 1 21 23
M  V30 19 1 21 24
M  V30 20 1 21 25
M  V30 21 1 26 27
M  V30 22 1 26 28
M  V30 23 1 26 29
M  V30 24 1 26 30
M  V30 25 1 31 32
M  V30 26 1 31 33
M  V30 27 1 31 34
M  V30 28 1 31 35
M  V30 29 1 36 37
M  V30 30 1 36 38
M  V30 31 1 36 39
M  V30 32 1 36 40
M  V30 33 1 41 42
M  V30 34 1 41 43
M  V30 35 1 41 44
M  V30 36 1 41 45
M  V30 37 1 46 47
M  V30 38 1 47 48
M  V30 39 1 49 50
M  V30 40 1 50 51
M  V30 41 1 52 53
M  V30 42 1 53 54
M  V30 43 1 55 56
M  V30 44 1 56 57
M  V30 45 1 58 59
M  V30 46 1 59 60
M  V30 47 1 61 62
M  V30 48 1 62 63
M  V30 49 1 64 65
M  V30 50 1 65 66
M  V30 51 1 67 68
M  V30 52 1 68 69
M  V30 53 1 70 71
M  V30 54 1 71 72
M  V30 55 1 73 74
M  V30 56 1 74 75
M  V30 57 1 76 77
M  V30 58 1 77 78
M  V30 59 1 79 80
M  V30 60 1 80 81
M  V30 61 1 82 83
M  V30 62 1 83 84
M  V30 63 1 85 86
M  V30 64 1 86 87
M  V30 65 1 88 89
M  V30 66 1 89 90
M  V30 67 1 91 92
M  V30 68 1 92 93
M  V30 69 1 94 95
M  V30 70 1 95 96
M  V30 71 1 97 98
M  V30 72 1 98 99
M  V30 73 1 2 91
M  V30 74 1 3 70
M  V30 75 1 4 94
M  V30 76 1 5 46
M  V30 77 1 7 88
M  V30 78 1 8 85
M  V30 79 1 9 96
M  V30 80 1 10 49
M  V30 81 1 12 76
M  V30 82 1 13 87
M  V30 83 1 14 61
M  V30 84 1 15 90
M  V30 85 1 17 67
M  V30 86 1 18 73
M  V30 87 1 19 79
M  V30 88 1 20 93
M  V30 89 1 22 97
M  V30 90 1 23 52
M  V30 91 1 24 78
M  V30 92 1 25 58
M  V30 93 1 27 81
M  V30 94 1 28 69
M  V30 95 1 29 63
M  V30 96 1 30 51
M  V30 97 1 32 64
M  V30 98 1 33 82
M  V30 99 1 34 55
M  V30 100 1 35 72
M  V30 101 1 37 84
M  V30 102 1 38 60
M  V30 103 1 39 48
M  V30 104 1 40 99
M  V30 105 1 42 75
M  V30 106 1 43 57
M  V30 107 1 44 66
M  V30 108 1 45 54
M  V30 END BOND
M  V30 END CTAB
M  END

$$$$
