
     RDKit          3D

  0  0  0  0  0  0  0  0  0  0999 V3000
M  V30 BEGIN CTAB
M  V30 COUNTS 99 108 0 0 0
M  V30 BEGIN ATOM
M  V30 1 Pd -1.5602 -0.6339 -4.8843 0
M  V30 2 Pb -0.6170 -0.9320 -5.0363 0
M  V30 3 Pb -1.6314 -0.3900 -5.8455 0
M  V30 4 Pb -2.4799 -0.2215 -4.7370 0
M  V30 5 Pb -1.5057 -0.9805 -3.9438 0
M  V30 6 Pd -4.2732 4.3634 -5.4481 0
M  V30 7 Pb -3.8182 5.2229 -5.6850 0
M  V30 8 Pb -4.5101 3.4136 -5.1762 0
M  V30 9 Pb -4.2668 4.0859 -6.4032 0
M  V30 10 Pb -4.1888 4.6422 -4.4946 0
M  V30 11 Pd 2.4349 1.5153 3.0586 0
M  V30 12 Pb 3.1962 0.9891 2.6825 0
M  V30 13 Pb 1.5992 1.9598 3.3755 0
M  V30 14 Pb 2.4675 1.0048 3.9208 0
M  V30 15 Pb 2.4195 2.0754 2.2270 0
M  V30 16 Pd 0.8292 -4.6482 7.3040 0
M  V30 17 Pb 0.4504 -5.5329 7.0516 0
M  V30 18 Pb 1.6977 -4.9433 6.9178 0
M  V30 19 Pb -0.0970 -4.3354 7.5159 0
M  V30 20 Pb 1.2014 -3.7276 7.4147 0
M  V30 21 Pd 2.5739 1.2936 -2.6374 0
M  V30 22 Pb 1.9081 0.7131 -2.1727 0
M  V30 23 Pb 3.1885 1.9142 -3.1296 0
M  V30 24 Pb 2.5471 1.9453 -1.8771 0
M  V30 25 Pb 2.5689 0.6329 -3.3891 0
M  V30 26 Pd 1.7038 5.9136 -2.6757 0
M  V30 27 Pb 1.3187 6.4683 -3.4149 0
M  V30 28 Pb 1.9740 5.2487 -1.9846 0
M  V30 29 Pb 0.8425 6.0547 -2.1936 0
M  V30 30 Pb 2.5151 5.6501 -3.1952 0
M  V30 31 Pd 2.1432 -3.1950 0.7963 0
M  V30 32 Pb 1.6060 -2.5509 0.2548 0
M  V30 33 Pb 1.3874 -3.8526 0.7136 0
M  V30 34 Pb 2.8887 -2.5323 0.8992 0
M  V30 35 Pb 2.6513 -3.8077 1.3976 0
M  V30 36 Pd -1.5191 0.1464 0.9675 0
M  V30 37 Pb -2.3228 -0.3538 1.2857 0
M  V30 38 Pb -1.5846 0.7859 1.7331 0
M  V30 39 Pb -1.4366 -0.4935 0.2013 0
M  V30 40 Pb -0.6828 0.6259 0.7056 0
M  V30 41 Pd -2.3192 -4.6288 3.6672 0
M  V30 42 Pb -2.5899 -4.3461 4.5913 0
M  V30 43 Pb -1.9076 -5.4445 4.0733 0
M  V30 44 Pb -1.9553 -4.8847 2.7682 0
M  V30 45 Pb -2.8135 -3.8522 3.2704 0
M  V30 46 Ag 2.4780 0.6647 4.5921 0
M  V30 47 Fe 1.9977 -1.1690 6.0255 0
M  V30 48 Ag 1.4931 -3.0372 7.4048 0
M  V30 49 Ag -4.0024 4.8925 -3.8167 0
M  V30 50 Fe -2.0471 5.5511 -2.6515 0
M  V30 51 Ag 0.1459 6.0807 -1.9271 0
M  V30 52 Ag -1.7788 -0.1438 -6.5291 0
M  V30 53 Fe -2.9422 1.7358 -7.3387 0
M  V30 54 Ag -4.1267 3.7475 -7.0452 0
M  V30 55 Ag -3.3430 5.7960 -5.7865 0
M  V30 56 Fe -1.2130 6.4923 -4.9931 0
M  V30 57 Ag 0.8939 6.8034 -3.9367 0
M  V30 58 Ag 2.1032 4.6834 -1.5145 0
M  V30 59 Fe 1.0776 2.8336 -0.4391 0
M  V30 60 Ag -0.0535 1.0119 0.5769 0
M  V30 61 Ag 2.2691 -5.1332 6.4798 0
M  V30 62 Fe 2.8542 -4.8021 4.2085 0
M  V30 63 Ag 3.0057 -4.2066 1.9205 0
M  V30 64 Ba -2.9086 -0.7459 1.5379 0
M  V30 65 Ga -3.0533 -2.0239 2.2621 0
M  V30 66 Ba -3.2348 -3.2972 2.9860 0
M  V30 67 Ba 0.8072 -4.3286 0.6278 0
M  V30 68 Ga -0.4155 -4.6959 1.3784 0
M  V30 69 Ba -1.6442 -5.0802 2.1104 0
M  V30 70 Ba -0.8169 -4.1261 7.5611 0
M  V30 71 Ga -1.8236 -4.1091 6.4779 0
M  V30 72 Ba -2.7237 -4.1427 5.3047 0
M  V30 73 Ba -3.1743 0.0955 -4.6458 0
M  V30 74 Ga -3.8677 1.4121 -4.8190 0
M  V30 75 Ba -4.6389 2.6883 -4.9627 0
M  V30 76 Ba 3.6065 2.4314 -3.4819 0
M  V30 77 Ga 3.4247 3.8943 -3.5647 0
M  V30 78 Ba 3.0967 5.3336 -3.5454 0
M  V30 79 Ba -1.4399 -1.3298 -3.2792 0
M  V30 80 Ga -1.4220 -1.0909 -1.8205 0
M  V30 81 Ba -1.3831 -1.0067 -0.3451 0
M  V30 82 Ba 3.7168 0.5630 2.3526 0
M  V30 83 Ga 3.6126 -0.7452 1.6756 0
M  V30 84 Ba 3.4594 -2.0535 1.0082 0
M  V30 85 Ba 1.3782 0.2868 -1.8608 0
M  V30 86 Ga 1.3074 -0.8964 -0.9866 0
M  V30 87 Ba 1.1627 -2.0761 -0.1168 0
M  V30 88 Ba 2.4191 2.5343 1.6305 0
M  V30 89 Ga 2.4708 2.4489 0.1561 0
M  V30 90 Ba 2.5160 2.4502 -1.3212 0
M  V30 91 Ba 0.1086 -1.0912 -5.1465 0
M  V30 92 Ga 1.3363 -0.5178 -4.5598 0
M  V30 93 Ba 2.5124 0.1083 -3.9235 0
M  V30 94 Ba 0.1522 -6.1458 6.7515 0
M  V30 95 Ga -0.7474 -6.1821 5.5888 0
M  V30 96 Ba -1.6357 -6.0491 4.4240 0
M  V30 97 Ba 0.9228 2.2172 3.5648 0
M  V30 98 Ga -0.3691 1.8088 2.9876 0
M  V30 99 Ba -1.5569 1.2824 2.2938 0
M  V30 END ATOM
M  V30 BEGIN BOND
M  V30 1 1 1 2
M  V30 2 1 1 3
M  V30 3 1 1 4
M  V30 4 1 1 5
M  V30 5 1 6 7
M  V30 6 1 6 8
M  V30 7 1 6 9
M  V30 8 1 6 10
M  V30 9 1 11 12
M  V30 10 1 11 13
M  V30 11 1 11 14
M  V30 12 1 11 15
M  V30 13 1 16 17
M  V30 14 1 16 18
M  V30 15 1 16 19
M  V30 16 1 16 20
M  V30 17 1 21 22
M  V30 18 1 21 23
M  V30 19 1 21 24
M  V30 20 1 21 25
M  V30 21 1 26 27
M  V30 22 1 26 28
M  V30 23 1 26 29
M  V30 24 1 26 30
M  V30 25 1 31 32
M  V30 26 1 31 33
M  V30 27 1 31 34
M  V30 28 1 31 35
M  V30 29 1 36 37
M  V30 30 1 36 38
M  V30 31 1 36 39
M  V30 32 1 36 40
M  V30 33 1 41 42
M  V30 34 1 41 43
M  V30 35 1 41 44
M  V30 36 1 41 45
M  V30 37 1 46 47
M  V30 38 1 47 48
M  V30 39 1 49 50
M  V30 40 1 50 51
M  V30 41 1 52 53
M  V30 42 1 53 54
M  V30 43 1 55 56
M  V30 44 1 56 57
M  V30 45 1 58 59
M  V30 46 1 59 60
M  V30 47 1 61 62
M  V30 48 1 62 63
M  V30 49 1 64 65
M  V30 50 1 65 66
M  V30 51 1 67 68
M  V30 52 1 68 69
M  V30 53 1 70 71
M  V30 54 1 71 72
M  V30 55 1 73 74
M  V30 56 1 74 75
M  V30 57 1 76 77
M  V30 58 1 77 78
M  V30 59 1 79 80
M  V30 60 1 80 81
M  V30 61 1 82 83
M  V30 62 1 83 84
M  V30 63 1 85 86
M  V30 64 1 86 87
M  V30 65 1 88 89
M  V30 66 1 89 90
M  V30 67 1 91 92
M  V30 68 1 92 93
M  V30 69 1 94 95
M  V30 70 1 95 96
M  V30 71 1 97 98
M  V30 72 1 98 99
M  V30 73 1 2 91
M  V30 74 1 3 52
M  V30 75 1 4 73
M  V30 76 1 5 79
M  V30 77 1 7 55
M  V30 78 1 8 75
M  V30 79 1 9 54
M  V30 80 1 10 49
M  V30 81 1 12 82
M  V30 82 1 13 97
M  V30 83 1 14 46
M  V30 84 1 15 88
M  V30 85 1 17 94
M  V30 86 1 18 61
M  V30 87 1 19 70
M  V30 88 1 20 48
M  V30 89 1 22 85
M  V30 90 1 23 76
M  V30 91 1 24 90
M  V30 92 1 25 93
M  V30 93 1 27 57
M  V30 94 1 28 58
M  V30 95 1 29 51
M  V30 96 1 30 78
M  V30 97 1 32 87
M  V30 98 1 33 67
M  V30 99 1 34 84
M  V30 100 1 35 63
M  V30 101 1 37 64
M  V30 102 1 38 99
M  V30 103 1 39 81
M  V30 104 1 40 60
M  V30 105 1 42 72
M  V30 106 1 43 96
M  V30 107 1 44 69
M  V30 108 1 45 66
M  V30 END BOND
M  V30 END CTAB
M  END

$$$$
