
     RDKit          3D

  0  0  0  0  0  0  0  0  0  0999 V3000
M  V30 BEGIN CTAB
M  V30 COUNTS 99 108 0 0 0
M  V30 BEGIN ATOM
M  V30 1 Pd 1.2679 0.2858 4.2317 0
M  V30 2 Pb 0.9246 1.0535 4.7780 0
M  V30 3 Pb 0.4802 0.3907 3.6270 0
M  V30 4 Pb 2.0699 0.1455 4.8139 0
M  V30 5 Pb 1.5979 -0.4609 3.6569 0
M  V30 6 Pd -7.2440 -4.2854 -2.4790 0
M  V30 7 Pb -6.8806 -3.9045 -3.3287 0
M  V30 8 Pb -7.4839 -3.3717 -2.1541 0
M  V30 9 Pb -6.7955 -5.1614 -2.6371 0
M  V30 10 Pb -7.4949 -4.6291 -1.5788 0
M  V30 11 Pd 0.5180 5.4476 -1.7611 0
M  V30 12 Pb -0.2080 5.5452 -1.0731 0
M  V30 13 Pb -0.0906 4.9530 -2.3815 0
M  V30 14 Pb 1.2730 5.3082 -2.4048 0
M  V30 15 Pb 1.1115 6.0008 -1.1822 0
M  V30 16 Pd 3.8864 1.2514 -3.0948 0
M  V30 17 Pb 3.7444 2.2176 -3.3272 0
M  V30 18 Pb 4.4634 1.5064 -2.2946 0
M  V30 19 Pb 3.3899 0.9838 -3.9229 0
M  V30 20 Pb 4.0365 0.2933 -2.8767 0
M  V30 21 Pd -0.9862 -0.9341 -5.5821 0
M  V30 22 Pb -1.9321 -1.2663 -5.5871 0
M  V30 23 Pb -1.3063 0.0096 -5.5334 0
M  V30 24 Pb -0.0454 -0.6002 -5.6699 0
M  V30 25 Pb -0.6566 -1.8734 -5.5037 0
M  V30 26 Pd 5.8878 0.5231 2.5895 0
M  V30 27 Pb 5.9712 0.9604 1.6751 0
M  V30 28 Pb 5.8843 1.4165 3.0298 0
M  V30 29 Pb 5.6900 0.1369 3.4894 0
M  V30 30 Pb 5.8521 -0.3700 2.1552 0
M  V30 31 Pd 0.9442 5.6211 3.3987 0
M  V30 32 Pb 0.5621 5.0016 4.0886 0
M  V30 33 Pb 1.8367 5.5296 3.8290 0
M  V30 34 Pb 1.3686 6.2072 2.7141 0
M  V30 35 Pb 0.0877 5.6654 2.8788 0
M  V30 36 Pd -0.7021 -5.6783 -0.0216 0
M  V30 37 Pb -0.4002 -5.6480 -0.9741 0
M  V30 38 Pb -1.0024 -5.6321 0.9359 0
M  V30 39 Pb -1.5062 -6.1832 -0.3427 0
M  V30 40 Pb 0.0952 -5.1532 0.2676 0
M  V30 41 Pd -3.7101 -2.2419 2.7766 0
M  V30 42 Pb -4.4082 -1.6660 2.3464 0
M  V30 43 Pb -3.0386 -1.5124 2.6332 0
M  V30 44 Pb -3.0353 -2.9156 3.0852 0
M  V30 45 Pb -4.4123 -2.9442 2.8583 0
M  V30 46 Ag -6.5556 -3.5914 -3.9275 0
M  V30 47 Fe -4.6000 -2.5549 -4.7933 0
M  V30 48 Ag -2.6386 -1.5187 -5.6461 0
M  V30 49 Ag -0.4192 -2.5663 -5.3493 0
M  V30 50 Fe -0.2588 -4.1606 -3.5979 0
M  V30 51 Ag -0.2130 -5.5816 -1.6970 0
M  V30 52 Ag -7.5527 -4.8241 -0.8627 0
M  V30 53 Fe -6.4178 -4.3016 1.1477 0
M  V30 54 Ag -4.9724 -3.4334 2.8093 0
M  V30 55 Ag -7.5139 -2.7249 -1.7766 0
M  V30 56 Fe -6.3588 -1.8071 0.0857 0
M  V30 57 Ag -4.9525 -1.3394 1.9433 0
M  V30 58 Ag 4.1953 -0.3763 -2.6017 0
M  V30 59 Fe 5.0018 -1.1180 -0.5143 0
M  V30 60 Ag 5.7631 -0.9552 1.7106 0
M  V30 61 Ag -6.3531 -5.7628 -2.5945 0
M  V30 62 Fe -4.2276 -6.3013 -1.6806 0
M  V30 63 Ag -2.0869 -6.5281 -0.6748 0
M  V30 64 Ag 1.8363 -1.0159 3.2150 0
M  V30 65 Fe 1.3075 -2.8857 1.8539 0
M  V30 66 Ag 0.6640 -4.7381 0.5185 0
M  V30 67 Ag 5.8101 2.0693 3.3823 0
M  V30 68 Fe 4.2838 3.8248 3.8276 0
M  V30 69 Ag 2.5314 5.4004 4.0637 0
M  V30 70 Ag -0.5287 4.6086 -2.8837 0
M  V30 71 Fe -1.0651 2.6898 -4.1744 0
M  V30 72 Ag -1.5178 0.7171 -5.4149 0
M  V30 73 Ba 0.6217 1.6337 5.1505 0
M  V30 74 Ga 0.4755 3.0825 4.8896 0
M  V30 75 Ba 0.3293 4.5314 4.6288 0
M  V30 76 Ba 3.0789 0.7838 -4.5775 0
M  V30 77 Ga 1.8305 0.2151 -5.1258 0
M  V30 78 Ba 0.6474 -0.3442 -5.8113 0
M  V30 79 Ba 4.9607 1.7191 -1.7490 0
M  V30 80 Ga 5.4288 1.4572 -0.3529 0
M  V30 81 Ba 6.0303 1.3400 1.0115 0
M  V30 82 Ba 1.5266 6.4380 -0.7417 0
M  V30 83 Ga 1.6413 6.5537 0.7187 0
M  V30 84 Ba 1.7053 6.6121 2.1856 0
M  V30 85 Ba -0.7248 5.6113 -0.5264 0
M  V30 86 Ga -0.6476 5.6574 0.9524 0
M  V30 87 Ba -0.5146 5.6986 2.4274 0
M  V30 88 Ba 1.8505 5.1934 -2.8725 0
M  V30 89 Ga 2.7396 4.0544 -3.1883 0
M  V30 90 Ba 3.6471 2.9374 -3.5290 0
M  V30 91 Ba 2.6989 -0.0181 5.1905 0
M  V30 92 Ga 4.1038 -0.0676 4.7414 0
M  V30 93 Ba 5.4654 -0.0738 4.1726 0
M  V30 94 Ba -1.1483 -5.5297 1.6699 0
M  V30 95 Ga -1.8700 -4.5170 2.4749 0
M  V30 96 Ba -2.5969 -3.4996 3.2695 0
M  V30 97 Ba -0.0980 0.4687 3.1582 0
M  V30 98 Ga -1.3412 -0.2644 2.8507 0
M  V30 99 Ba -2.6053 -0.9208 2.4661 0
M  V30 END ATOM
M  V30 BEGIN BOND
M  V30 1 1 1 2
M  V30 2 1 1 3
M  V30 3 1 1 4
M  V30 4 1 1 5
M  V30 5 1 6 7
M  V30 6 1 6 8
M  V30 7 1 6 9
M  V30 8 1 6 10
M  V30 9 1 11 12
M  V30 10 1 11 13
M  V30 11 1 11 14
M  V30 12 1 11 15
M  V30 13 1 16 17
M  V30 14 1 16 18
M  V30 15 1 16 19
M  V30 16 1 16 20
M  V30 17 1 21 22
M  V30 18 1 21 23
M  V30 19 1 21 24
M  V30 20 1 21 25
M  V30 21 1 26 27
M  V30 22 1 26 28
M  V30 23 1 26 29
M  V30 24 1 26 30
M  V30 25 1 31 32
M  V30 26 1 31 33
M  V30 27 1 31 34
M  V30 28 1 31 35
M  V30 29 1 36 37
M  V30 30 1 36 38
M  V30 31 1 36 39
M  V30 32 1 36 40
M  V30 33 1 41 42
M  V30 34 1 41 43
M  V30 35 1 41 44
M  V30 36 1 41 45
M  V30 37 1 46 47
M  V30 38 1 47 48
M  V30 39 1 49 50
M  V30 40 1 50 51
M  V30 41 1 52 53
M  V30 42 1 53 54
M  V30 43 1 55 56
M  V30 44 1 56 57
M  V30 45 1 58 59
M  V30 46 1 59 60
M  V30 47 1 61 62
M  V30 48 1 62 63
M  V30 49 1 64 65
M  V30 50 1 65 66
M  V30 51 1 67 68
M  V30 52 1 68 69
M  V30 53 1 70 71
M  V30 54 1 71 72
M  V30 55 1 73 74
M  V30 56 1 74 75
M  V30 57 1 76 77
M  V30 58 1 77 78
M  V30 59 1 79 80
M  V30 60 1 80 81
M  V30 61 1 82 83
M  V30 62 1 83 84
M  V30 63 1 85 86
M  V30 64 1 86 87
M  V30 65 1 88 89
M  V30 66 1 89 90
M  V30 67 1 91 92
M  V30 68 1 92 93
M  V30 69 1 94 95
M  V30 70 1 95 96
M  V30 71 1 97 98
M  V30 72 1 98 99
M  V30 73 1 2 73
M  V30 74 1 3 97
M  V30 75 1 4 91
M  V30 76 1 5 64
M  V30 77 1 7 46
M  V30 78 1 8 55
M  V30 79 1 9 61
M  V30 80 1 10 52
M  V30 81 1 12 85
M  V30 82 1 13 70
M  V30 83 1 14 88
M  V30 84 1 15 82
M  V30 85 1 17 90
M  V30 86 1 18 79
M  V30 87 1 19 76
M  V30 88 1 20 58
M  V30 89 1 22 48
M  V30 90 1 23 72
M  V30 91 1 24 78
M  V30 92 1 25 49
M  V30 93 1 27 81
M  V30 94 1 28 67
M  V30 95 1 29 93
M  V30 96 1 30 60
M  V30 97 1 32 75
M  V30 98 1 33 69
M  V30 99 1 34 84
M  V30 100 1 35 87
M  V30 101 1 37 51
M  V30 102 1 38 94
M  V30 103 1 39 63
M  V30 104 1 40 66
M  V30 105 1 42 57
M  V30 106 1 43 99
M  V30 107 1 44 96
M  V30 108 1 45 54
M  V30 END BOND
M  V30 END CTAB
M  END

$$$$
