
     RDKit          3D

  0  0  0  0  0  0  0  0  0  0999 V3000
M  V30 BEGIN CTAB
M  V30 COUNTS 99 108 0 0 0
M  V30 BEGIN ATOM
M  V30 1 Pd 1.0370 1.4039 3.6831 0
M  V30 2 Pb 1.2230 1.0391 4.5971 0
M  V30 3 Pb 0.8592 1.7600 2.7645 0
M  V30 4 Pb 1.4099 2.3032 3.9146 0
M  V30 5 Pb 0.6874 0.5031 3.4225 0
M  V30 6 Pd -5.9759 3.8805 -2.2833 0
M  V30 7 Pb -5.6679 3.2586 -3.0033 0
M  V30 8 Pb -6.2332 4.4567 -1.5095 0
M  V30 9 Pb -6.6358 3.1847 -2.0062 0
M  V30 10 Pb -5.2409 4.5306 -2.4840 0
M  V30 11 Pd 2.4982 -5.1202 -1.6020 0
M  V30 12 Pb 2.0794 -5.2244 -0.6973 0
M  V30 13 Pb 1.6436 -5.3423 -2.0725 0
M  V30 14 Pb 2.9361 -4.9685 -2.4877 0
M  V30 15 Pb 3.3502 -4.9180 -1.1220 0
M  V30 16 Pd 3.1048 -0.6662 -4.1923 0
M  V30 17 Pb 3.3972 -1.5873 -4.4485 0
M  V30 18 Pb 2.8270 0.2486 -3.8884 0
M  V30 19 Pb 2.2628 -0.8025 -4.7160 0
M  V30 20 Pb 3.9509 -0.5148 -3.6845 0
M  V30 21 Pd -2.2407 -2.7862 -3.8822 0
M  V30 22 Pb -2.7929 -1.9724 -4.0772 0
M  V30 23 Pb -1.7109 -3.6245 -3.7383 0
M  V30 24 Pb -1.5340 -2.3919 -4.4733 0
M  V30 25 Pb -2.9692 -3.2013 -3.3317 0
M  V30 26 Pd 4.9847 3.4901 1.4385 0
M  V30 27 Pb 4.3730 3.6713 0.6657 0
M  V30 28 Pb 5.5437 3.1875 2.2073 0
M  V30 29 Pb 4.3971 3.9780 2.0840 0
M  V30 30 Pb 5.5166 2.9185 0.8173 0
M  V30 31 Pd 4.1259 -2.4430 4.9190 0
M  V30 32 Pb 3.5176 -1.9787 5.5622 0
M  V30 33 Pb 4.8210 -1.7509 5.1018 0
M  V30 34 Pb 4.6954 -2.8386 4.2014 0
M  V30 35 Pb 3.4084 -3.0796 4.6307 0
M  V30 36 Pd -4.8110 -2.2901 1.0090 0
M  V30 37 Pb -4.8412 -2.9497 0.2587 0
M  V30 38 Pb -4.7362 -1.5842 1.7120 0
M  V30 39 Pb -5.6678 -1.8885 0.6901 0
M  V30 40 Pb -3.9068 -2.5960 1.2977 0
M  V30 41 Pd -2.7172 4.6089 1.0370 0
M  V30 42 Pb -3.6168 5.0274 1.1545 0
M  V30 43 Pb -1.8413 4.1512 0.8727 0
M  V30 44 Pb -2.9103 3.9897 1.7954 0
M  V30 45 Pb -2.6134 5.1393 0.1952 0
M  V30 46 Ag -5.4375 2.7482 -3.5026 0
M  V30 47 Fe -4.3057 0.6929 -3.8826 0
M  V30 48 Ag -3.1801 -1.3614 -4.2854 0
M  V30 49 Ag 2.6867 0.9296 -3.5985 0
M  V30 50 Fe 3.2266 2.4095 -1.8159 0
M  V30 51 Ag 3.9296 3.6952 0.0580 0
M  V30 52 Ag 3.9491 -4.7755 -0.6962 0
M  V30 53 Fe 4.6419 -3.9681 1.4244 0
M  V30 54 Ag 5.0449 -3.1169 3.6019 0
M  V30 55 Ag 1.8380 -5.2552 0.0148 0
M  V30 56 Fe 2.2647 -4.4666 2.2173 0
M  V30 57 Ag 2.9050 -3.5372 4.3103 0
M  V30 58 Ag 4.5569 -0.3320 -3.2854 0
M  V30 59 Fe 5.3337 1.0123 -1.4918 0
M  V30 60 Ag 5.8320 2.4461 0.3312 0
M  V30 61 Ag -7.0466 2.6083 -1.7642 0
M  V30 62 Fe -6.8299 0.5122 -0.6745 0
M  V30 63 Ag -6.2563 -1.5113 0.4233 0
M  V30 64 Ag 0.4300 -0.1755 3.2302 0
M  V30 65 Fe -1.3344 -1.5247 2.3916 0
M  V30 66 Ag -3.2076 -2.7067 1.5374 0
M  V30 67 Ag -4.6144 -1.0270 2.1976 0
M  V30 68 Fe -3.8801 1.2209 2.3952 0
M  V30 69 Ag -3.1180 3.4654 2.2865 0
M  V30 70 Ag 5.8911 2.8650 2.7848 0
M  V30 71 Fe 5.7638 0.8953 4.0984 0
M  V30 72 Ag 5.2967 -1.1768 5.1519 0
M  V30 73 Ba 1.3565 0.7205 5.2647 0
M  V30 74 Ga 2.1988 -0.4204 5.6747 0
M  V30 75 Ba 3.0669 -1.5692 5.9998 0
M  V30 76 Ba -3.5010 -3.5661 -2.9428 0
M  V30 77 Ga -4.1738 -3.4748 -1.6312 0
M  V30 78 Ba -4.8678 -3.4144 -0.3289 0
M  V30 79 Ba 1.6553 -0.9194 -5.1414 0
M  V30 80 Ga 0.3073 -1.5063 -4.9991 0
M  V30 81 Ba -1.0566 -2.0715 -4.9584 0
M  V30 82 Ba -4.6604 5.0036 -2.5489 0
M  V30 83 Ga -3.6011 5.3012 -1.5636 0
M  V30 84 Ba -2.6224 5.4822 -0.4724 0
M  V30 85 Ba -6.3461 4.8718 -0.8974 0
M  V30 86 Ga -5.3888 5.1453 0.1873 0
M  V30 87 Ba -4.3093 5.3117 1.1746 0
M  V30 88 Ba 3.2585 -4.8221 -3.1485 0
M  V30 89 Ga 3.4466 -3.5713 -3.9064 0
M  V30 90 Ba 3.6039 -2.2884 -4.6161 0
M  V30 91 Ba 1.6995 2.9882 4.0177 0
M  V30 92 Ga 2.8161 3.6778 3.3424 0
M  V30 93 Ba 3.9485 4.2741 2.6074 0
M  V30 94 Ba 0.7531 2.0460 2.0781 0
M  V30 95 Ga -0.2378 2.9207 1.4190 0
M  V30 96 Ba -1.2002 3.7919 0.7146 0
M  V30 97 Ba 1.0207 -5.5340 -2.4448 0
M  V30 98 Ga -0.1598 -4.8652 -3.0278 0
M  V30 99 Ba -1.3729 -4.2894 -3.6421 0
M  V30 END ATOM
M  V30 BEGIN BOND
M  V30 1 1 1 2
M  V30 2 1 1 3
M  V30 3 1 1 4
M  V30 4 1 1 5
M  V30 5 1 6 7
M  V30 6 1 6 8
M  V30 7 1 6 9
M  V30 8 1 6 10
M  V30 9 1 11 12
M  V30 10 1 11 13
M  V30 11 1 11 14
M  V30 12 1 11 15
M  V30 13 1 16 17
M  V30 14 1 16 18
M  V30 15 1 16 19
M  V30 16 1 16 20
M  V30 17 1 21 22
M  V30 18 1 21 23
M  V30 19 1 21 24
M  V30 20 1 21 25
M  V30 21 1 26 27
M  V30 22 1 26 28
M  V30 23 1 26 29
M  V30 24 1 26 30
M  V30 25 1 31 32
M  V30 26 1 31 33
M  V30 27 1 31 34
M  V30 28 1 31 35
M  V30 29 1 36 37
M  V30 30 1 36 38
M  V30 31 1 36 39
M  V30 32 1 36 40
M  V30 33 1 41 42
M  V30 34 1 41 43
M  V30 35 1 41 44
M  V30 36 1 41 45
M  V30 37 1 46 47
M  V30 38 1 47 48
M  V30 39 1 49 50
M  V30 40 1 50 51
M  V30 41 1 52 53
M  V30 42 1 53 54
M  V30 43 1 55 56
M  V30 44 1 56 57
M  V30 45 1 58 59
M  V30 46 1 59 60
M  V30 47 1 61 62
M  V30 48 1 62 63
M  V30 49 1 64 65
M  V30 50 1 65 66
M  V30 51 1 67 68
M  V30 52 1 68 69
M  V30 53 1 70 71
M  V30 54 1 71 72
M  V30 55 1 73 74
M  V30 56 1 74 75
M  V30 57 1 76 77
M  V30 58 1 77 78
M  V30 59 1 79 80
M  V30 60 1 80 81
M  V30 61 1 82 83
M  V30 62 1 83 84
M  V30 63 1 85 86
M  V30 64 1 86 87
M  V30 65 1 88 89
M  V30 66 1 89 90
M  V30 67 1 91 92
M  V30 68 1 92 93
M  V30 69 1 94 95
M  V30 70 1 95 96
M  V30 71 1 97 98
M  V30 72 1 98 99
M  V30 73 1 2 73
M  V30 74 1 3 94
M  V30 75 1 4 91
M  V30 76 1 5 64
M  V30 77 1 7 46
M  V30 78 1 8 85
M  V30 79 1 9 61
M  V30 80 1 10 82
M  V30 81 1 12 55
M  V30 82 1 13 97
M  V30 83 1 14 88
M  V30 84 1 15 52
M  V30 85 1 17 90
M  V30 86 1 18 49
M  V30 87 1 19 79
M  V30 88 1 20 58
M  V30 89 1 22 48
M  V30 90 1 23 99
M  V30 91 1 24 81
M  V30 92 1 25 76
M  V30 93 1 27 51
M  V30 94 1 28 70
M  V30 95 1 29 93
M  V30 96 1 30 60
M  V30 97 1 32 75
M  V30 98 1 33 72
M  V30 99 1 34 54
M  V30 100 1 35 57
M  V30 101 1 37 78
M  V30 102 1 38 67
M  V30 103 1 39 63
M  V30 104 1 40 66
M  V30 105 1 42 87
M  V30 106 1 43 96
M  V30 107 1 44 69
M  V30 108 1 45 84
M  V30 END BOND
M  V30 END CTAB
M  END

$$$$
