
     RDKit          3D

  0  0  0  0  0  0  0  0  0  0999 V3000
M  V30 BEGIN CTAB
M  V30 COUNTS 99 108 0 0 0
M  V30 BEGIN ATOM
M  V30 1 Pd -1.0069 0.7235 4.9863 0
M  V30 2 Pb -1.4006 1.6445 4.9848 0
M  V30 3 Pb -0.1698 1.0701 5.4105 0
M  V30 4 Pb -1.8438 0.3637 4.5787 0
M  V30 5 Pb -0.6354 -0.2040 5.0025 0
M  V30 6 Pd 6.3012 -1.8329 -0.9170 0
M  V30 7 Pb 6.0821 -2.2368 -1.8054 0
M  V30 8 Pb 5.8717 -0.9672 -1.1632 0
M  V30 9 Pb 6.6880 -2.6919 -0.5825 0
M  V30 10 Pb 6.5491 -1.4242 -0.0318 0
M  V30 11 Pd -0.4417 3.6733 -4.2113 0
M  V30 12 Pb 0.2788 3.9597 -3.5922 0
M  V30 13 Pb 0.2016 3.1271 -4.7426 0
M  V30 14 Pb -1.1320 3.3371 -4.8483 0
M  V30 15 Pb -1.1348 4.1250 -3.6126 0
M  V30 16 Pd -5.8021 -1.2203 -4.7697 0
M  V30 17 Pb -5.2691 -0.7925 -5.4923 0
M  V30 18 Pb -6.3018 -1.4856 -3.9304 0
M  V30 19 Pb -5.0392 -1.8250 -4.5269 0
M  V30 20 Pb -6.5497 -0.6069 -5.0030 0
M  V30 21 Pd 1.8467 -3.3504 -3.9413 0
M  V30 22 Pb 2.8448 -3.3347 -4.0037 0
M  V30 23 Pb 1.8231 -2.5672 -4.5608 0
M  V30 24 Pb 0.8448 -3.3992 -3.8956 0
M  V30 25 Pb 1.9082 -4.0761 -3.2570 0
M  V30 26 Pd -7.1798 1.2261 0.1979 0
M  V30 27 Pb -7.2866 0.3615 -0.3254 0
M  V30 28 Pb -7.0177 2.0977 0.6616 0
M  V30 29 Pb -6.6178 0.7496 0.8710 0
M  V30 30 Pb -7.7599 1.6874 -0.4657 0
M  V30 31 Pd -2.7775 4.5258 1.3221 0
M  V30 32 Pb -2.7319 4.4041 2.3151 0
M  V30 33 Pb -3.7786 4.4767 1.3760 0
M  V30 34 Pb -2.7987 4.6651 0.3092 0
M  V30 35 Pb -1.7903 4.6227 1.3055 0
M  V30 36 Pd 4.4520 -4.4169 3.0554 0
M  V30 37 Pb 3.9853 -4.8622 2.2906 0
M  V30 38 Pb 4.8911 -3.9496 3.8272 0
M  V30 39 Pb 5.3180 -4.5640 2.5729 0
M  V30 40 Pb 3.5759 -4.2570 3.5068 0
M  V30 41 Pd 4.5649 0.5880 4.1994 0
M  V30 42 Pb 4.2957 1.2434 3.4978 0
M  V30 43 Pb 3.8660 0.9264 4.8321 0
M  V30 44 Pb 4.8442 -0.1407 4.8249 0
M  V30 45 Pb 5.3046 0.2830 3.5887 0
M  V30 46 Ag 1.9824 -4.5760 -2.7036 0
M  V30 47 Fe 2.7892 -4.9437 -0.5004 0
M  V30 48 Ag 3.6388 -5.1788 1.7049 0
M  V30 49 Ag -4.4776 -2.2872 -4.3313 0
M  V30 50 Fe -2.1708 -2.8279 -4.1163 0
M  V30 51 Ag 0.0980 -3.4908 -3.8474 0
M  V30 52 Ag 5.5284 -0.3064 -1.1573 0
M  V30 53 Fe 4.6894 0.9971 0.6280 0
M  V30 54 Ag 4.1725 1.5988 2.8553 0
M  V30 55 Ag 0.7196 4.1518 -3.0316 0
M  V30 56 Fe 0.2660 4.5272 -0.7530 0
M  V30 57 Ag -1.0656 4.6973 1.1804 0
M  V30 58 Ag -7.0897 -0.1007 -5.0282 0
M  V30 59 Fe -7.9935 1.2190 -3.3012 0
M  V30 60 Ag -8.1355 1.9222 -1.0591 0
M  V30 61 Ag -1.5774 3.0041 -5.3488 0
M  V30 62 Fe -3.2201 1.3494 -5.7782 0
M  V30 63 Ag -4.8702 -0.3455 -5.9347 0
M  V30 64 Ag -2.4682 0.0787 4.2814 0
M  V30 65 Fe -4.3329 0.2457 2.8237 0
M  V30 66 Ag -6.2082 0.3803 1.3764 0
M  V30 67 Ag -0.3756 -0.9067 5.0159 0
M  V30 68 Fe 1.2686 -2.5177 4.4366 0
M  V30 69 Ag 2.9251 -4.1122 3.8467 0
M  V30 70 Ag 0.6073 2.6289 -5.1247 0
M  V30 71 Fe 1.2884 0.3560 -5.1411 0
M  V30 72 Ag 1.8593 -1.9411 -4.9706 0
M  V30 73 Ba 5.9418 -2.5392 -2.4774 0
M  V30 74 Ga 4.7515 -2.9295 -3.2565 0
M  V30 75 Ba 3.5918 -3.3351 -4.0731 0
M  V30 76 Ba -1.7116 2.3286 5.0010 0
M  V30 77 Ga -2.1937 3.3169 4.0147 0
M  V30 78 Ba -2.6873 4.3317 3.0618 0
M  V30 79 Ba -6.6734 -1.6396 -3.2820 0
M  V30 80 Ga -7.0003 -0.9315 -2.0079 0
M  V30 81 Ba -7.3702 -0.2975 -0.7068 0
M  V30 82 Ba -1.6827 4.4555 -3.1829 0
M  V30 83 Ga -2.1928 4.5816 -1.7776 0
M  V30 84 Ba -2.8405 4.8203 -0.4457 0
M  V30 85 Ba 6.7879 -1.1270 0.6207 0
M  V30 86 Ga 6.2702 -0.5334 1.8764 0
M  V30 87 Ba 5.9042 0.0772 3.1765 0
M  V30 88 Ba 6.9564 -3.3058 -0.2453 0
M  V30 89 Ga 6.4773 -4.0245 0.9529 0
M  V30 90 Ba 5.9327 -4.6858 2.1563 0
M  V30 91 Ba 5.1561 -3.5838 4.4305 0
M  V30 92 Ga 5.1401 -2.1670 4.8533 0
M  V30 93 Ba 5.0929 -0.7335 5.2127 0
M  V30 94 Ba 0.4517 1.3239 5.7457 0
M  V30 95 Ga 1.9069 1.2496 5.5080 0
M  V30 96 Ba 3.3709 1.2087 5.3221 0
M  V30 97 Ba -6.8851 2.7651 0.9785 0
M  V30 98 Ga -5.6881 3.5998 1.2128 0
M  V30 99 Ba -4.5263 4.4761 1.4710 0
M  V30 END ATOM
M  V30 BEGIN BOND
M  V30 1 1 1 2
M  V30 2 1 1 3
M  V30 3 1 1 4
M  V30 4 1 1 5
M  V30 5 1 6 7
M  V30 6 1 6 8
M  V30 7 1 6 9
M  V30 8 1 6 10
M  V30 9 1 11 12
M  V30 10 1 11 13
M  V30 11 1 11 14
M  V30 12 1 11 15
M  V30 13 1 16 17
M  V30 14 1 16 18
M  V30 15 1 16 19
M  V30 16 1 16 20
M  V30 17 1 21 22
M  V30 18 1 21 23
M  V30 19 1 21 24
M  V30 20 1 21 25
M  V30 21 1 26 27
M  V30 22 1 26 28
M  V30 23 1 26 29
M  V30 24 1 26 30
M  V30 25 1 31 32
M  V30 26 1 31 33
M  V30 27 1 31 34
M  V30 28 1 31 35
M  V30 29 1 36 37
M  V30 30 1 36 38
M  V30 31 1 36 39
M  V30 32 1 36 40
M  V30 33 1 41 42
M  V30 34 1 41 43
M  V30 35 1 41 44
M  V30 36 1 41 45
M  V30 37 1 46 47
M  V30 38 1 47 48
M  V30 39 1 49 50
M  V30 40 1 50 51
M  V30 41 1 52 53
M  V30 42 1 53 54
M  V30 43 1 55 56
M  V30 44 1 56 57
M  V30 45 1 58 59
M  V30 46 1 59 60
M  V30 47 1 61 62
M  V30 48 1 62 63
M  V30 49 1 64 65
M  V30 50 1 65 66
M  V30 51 1 67 68
M  V30 52 1 68 69
M  V30 53 1 70 71
M  V30 54 1 71 72
M  V30 55 1 73 74
M  V30 56 1 74 75
M  V30 57 1 76 77
M  V30 58 1 77 78
M  V30 59 1 79 80
M  V30 60 1 80 81
M  V30 61 1 82 83
M  V30 62 1 83 84
M  V30 63 1 85 86
M  V30 64 1 86 87
M  V30 65 1 88 89
M  V30 66 1 89 90
M  V30 67 1 91 92
M  V30 68 1 92 93
M  V30 69 1 94 95
M  V30 70 1 95 96
M  V30 71 1 97 98
M  V30 72 1 98 99
M  V30 73 1 2 76
M  V30 74 1 3 94
M  V30 75 1 4 64
M  V30 76 1 5 67
M  V30 77 1 7 73
M  V30 78 1 8 52
M  V30 79 1 9 88
M  V30 80 1 10 85
M  V30 81 1 12 55
M  V30 82 1 13 70
M  V30 83 1 14 61
M  V30 84 1 15 82
M  V30 85 1 17 63
M  V30 86 1 18 79
M  V30 87 1 19 49
M  V30 88 1 20 58
M  V30 89 1 22 75
M  V30 90 1 23 72
M  V30 91 1 24 51
M  V30 92 1 25 46
M  V30 93 1 27 81
M  V30 94 1 28 97
M  V30 95 1 29 66
M  V30 96 1 30 60
M  V30 97 1 32 78
M  V30 98 1 33 99
M  V30 99 1 34 84
M  V30 100 1 35 57
M  V30 101 1 37 48
M  V30 102 1 38 91
M  V30 103 1 39 90
M  V30 104 1 40 69
M  V30 105 1 42 54
M  V30 106 1 43 96
M  V30 107 1 44 93
M  V30 108 1 45 87
M  V30 END BOND
M  V30 END CTAB
M  END

$$$$
