
     RDKit          3D

  0  0  0  0  0  0  0  0  0  0999 V3000
M  V30 BEGIN CTAB
M  V30 COUNTS 99 108 0 0 0
M  V30 BEGIN ATOM
M  V30 1 Pd -2.6233 1.2195 -6.1068 0
M  V30 2 Pb -2.7366 0.3851 -6.6448 0
M  V30 3 Pb -2.5125 2.0234 -5.4918 0
M  V30 4 Pb -3.5649 1.1210 -5.8106 0
M  V30 5 Pb -1.6844 1.3345 -6.4367 0
M  V30 6 Pd 1.7413 3.3115 4.8096 0
M  V30 7 Pb 1.9764 2.7384 5.5917 0
M  V30 8 Pb 0.8102 3.4091 5.1613 0
M  V30 9 Pb 1.4865 3.8362 3.9974 0
M  V30 10 Pb 2.6909 3.2491 4.5030 0
M  V30 11 Pd -2.0872 -3.2506 0.6928 0
M  V30 12 Pb -1.4326 -3.6921 0.0810 0
M  V30 13 Pb -2.7842 -2.8387 1.2847 0
M  V30 14 Pb -2.6703 -3.0371 -0.0949 0
M  V30 15 Pb -1.5050 -3.5299 1.4632 0
M  V30 16 Pd -1.6551 -3.7336 -4.6857 0
M  V30 17 Pb -1.1626 -4.0933 -3.8937 0
M  V30 18 Pb -2.1099 -3.3472 -5.4894 0
M  V30 19 Pb -2.4081 -3.4576 -4.0860 0
M  V30 20 Pb -0.8681 -3.9497 -5.2590 0
M  V30 21 Pd 5.4373 0.1568 1.7665 0
M  V30 22 Pb 5.5550 0.7808 0.9936 0
M  V30 23 Pb 5.3060 -0.5025 2.5085 0
M  V30 24 Pb 5.5822 -0.5903 1.1191 0
M  V30 25 Pb 5.3468 0.9359 2.3873 0
M  V30 26 Pd 1.4165 -1.9058 5.2111 0
M  V30 27 Pb 2.3628 -2.0437 4.9115 0
M  V30 28 Pb 0.4903 -1.7935 5.5645 0
M  V30 29 Pb 1.7353 -1.1945 5.8379 0
M  V30 30 Pb 1.0789 -2.6367 4.6130 0
M  V30 31 Pd -3.4948 3.8169 -0.7149 0
M  V30 32 Pb -3.8921 3.8016 0.2021 0
M  V30 33 Pb -3.1131 3.8263 -1.6601 0
M  V30 34 Pb -4.3477 3.4482 -1.0625 0
M  V30 35 Pb -2.6407 4.1878 -0.3483 0
M  V30 36 Pd 4.6885 -0.5703 -5.3808 0
M  V30 37 Pb 4.3202 -1.3648 -5.8571 0
M  V30 38 Pb 4.1361 0.0186 -5.9687 0
M  V30 39 Pb 5.1256 -1.1624 -4.7065 0
M  V30 40 Pb 4.9876 0.2071 -4.8284 0
M  V30 41 Pd -3.3132 1.0177 4.2908 0
M  V30 42 Pb -3.7559 0.2756 3.7867 0
M  V30 43 Pb -2.8722 1.7468 4.8126 0
M  V30 44 Pb -3.7733 1.7203 3.7459 0
M  V30 45 Pb -2.9120 0.3312 4.8943 0
M  V30 46 Ag -4.2343 1.1169 -5.4981 0
M  V30 47 Fe -5.0481 1.9974 -3.4736 0
M  V30 48 Ag -4.9126 3.1285 -1.4149 0
M  V30 49 Ag -0.9841 1.4345 -6.6913 0
M  V30 50 Fe 1.3424 0.9679 -6.5736 0
M  V30 51 Ag 3.6457 0.4260 -6.3618 0
M  V30 52 Ag 5.6340 1.1846 0.3663 0
M  V30 53 Fe 5.4522 1.0983 -1.9999 0
M  V30 54 Ag 5.1861 0.7313 -4.3310 0
M  V30 55 Ag 5.7180 -1.0899 0.5776 0
M  V30 56 Fe 5.6113 -1.4598 -1.7642 0
M  V30 57 Ag 5.3821 -1.5561 -4.1244 0
M  V30 58 Ag -0.2450 -4.0434 -5.6601 0
M  V30 59 Fe 1.9058 -3.1182 -6.0311 0
M  V30 60 Ag 3.9648 -1.9501 -6.1543 0
M  V30 61 Ag 1.2648 4.1971 3.3784 0
M  V30 62 Fe -0.3480 4.3648 1.6426 0
M  V30 63 Ag -2.0058 4.4616 -0.0559 0
M  V30 64 Ba 2.1485 2.2720 6.1502 0
M  V30 65 Ga 2.0672 0.8047 6.2573 0
M  V30 66 Ba 1.9672 -0.6643 6.3154 0
M  V30 67 Ba -2.3999 2.6393 -5.0475 0
M  V30 68 Ga -2.6558 3.1870 -3.6783 0
M  V30 69 Ba -2.8193 3.8902 -2.3674 0
M  V30 70 Ba 5.2188 -1.0334 3.0330 0
M  V30 71 Ga 4.1280 -1.5660 3.8751 0
M  V30 72 Ba 3.0888 -2.1515 4.7468 0
M  V30 73 Ba -3.3639 -2.5495 1.6686 0
M  V30 74 Ga -3.6827 -1.4132 2.5573 0
M  V30 75 Ba -4.0874 -0.3075 3.4499 0
M  V30 76 Ba -3.1228 -2.9047 -0.6821 0
M  V30 77 Ga -3.0342 -3.0656 -2.1489 0
M  V30 78 Ba -2.9465 -3.2256 -3.6159 0
M  V30 79 Ba -0.1952 -1.7299 5.8561 0
M  V30 80 Ga -1.4112 -0.9444 5.5876 0
M  V30 81 Ba -2.6550 -0.1878 5.3681 0
M  V30 82 Ba -1.0442 -3.8224 1.9853 0
M  V30 83 Ga -0.1329 -3.4456 3.0889 0
M  V30 84 Ba 0.8053 -3.2102 4.2093 0
M  V30 85 Ba 0.1248 3.5056 5.4504 0
M  V30 86 Ga -1.2071 2.8885 5.3127 0
M  V30 87 Ba -2.5548 2.3003 5.2049 0
M  V30 88 Ba -2.8508 -0.2673 -6.9954 0
M  V30 89 Ga -2.6370 -1.6655 -6.5751 0
M  V30 90 Ba -2.4058 -3.0471 -6.1113 0
M  V30 91 Ba -0.9583 -4.0430 -0.3803 0
M  V30 92 Ga -0.8636 -4.1958 -1.8433 0
M  V30 93 Ba -0.7718 -4.3469 -3.3066 0
M  V30 94 Ba 3.4190 3.2197 4.3257 0
M  V30 95 Ga 4.3362 2.3549 3.5595 0
M  V30 96 Ba 5.3254 1.5491 2.8191 0
M  V30 97 Ba -4.2273 3.7912 0.8724 0
M  V30 98 Ga -4.1466 3.0080 2.1203 0
M  V30 99 Ba -4.1390 2.2803 3.4039 0
M  V30 END ATOM
M  V30 BEGIN BOND
M  V30 1 1 1 2
M  V30 2 1 1 3
M  V30 3 1 1 4
M  V30 4 1 1 5
M  V30 5 1 6 7
M  V30 6 1 6 8
M  V30 7 1 6 9
M  V30 8 1 6 10
M  V30 9 1 11 12
M  V30 10 1 11 13
M  V30 11 1 11 14
M  V30 12 1 11 15
M  V30 13 1 16 17
M  V30 14 1 16 18
M  V30 15 1 16 19
M  V30 16 1 16 20
M  V30 17 1 21 22
M  V30 18 1 21 23
M  V30 19 1 21 24
M  V30 20 1 21 25
M  V30 21 1 26 27
M  V30 22 1 26 28
M  V30 23 1 26 29
M  V30 24 1 26 30
M  V30 25 1 31 32
M  V30 26 1 31 33
M  V30 27 1 31 34
M  V30 28 1 31 35
M  V30 29 1 36 37
M  V30 30 1 36 38
M  V30 31 1 36 39
M  V30 32 1 36 40
M  V30 33 1 41 42
M  V30 34 1 41 43
M  V30 35 1 41 44
M  V30 36 1 41 45
M  V30 37 1 46 47
M  V30 38 1 47 48
M  V30 39 1 49 50
M  V30 40 1 50 51
M  V30 41 1 52 53
M  V30 42 1 53 54
M  V30 43 1 55 56
M  V30 44 1 56 57
M  V30 45 1 58 59
M  V30 46 1 59 60
M  V30 47 1 61 62
M  V30 48 1 62 63
M  V30 49 1 64 65
M  V30 50 1 65 66
M  V30 51 1 67 68
M  V30 52 1 68 69
M  V30 53 1 70 71
M  V30 54 1 71 72
M  V30 55 1 73 74
M  V30 56 1 74 75
M  V30 57 1 76 77
M  V30 58 1 77 78
M  V30 59 1 79 80
M  V30 60 1 80 81
M  V30 61 1 82 83
M  V30 62 1 83 84
M  V30 63 1 85 86
M  V30 64 1 86 87
M  V30 65 1 88 89
M  V30 66 1 89 90
M  V30 67 1 91 92
M  V30 68 1 92 93
M  V30 69 1 94 95
M  V30 70 1 95 96
M  V30 71 1 97 98
M  V30 72 1 98 99
M  V30 73 1 2 88
M  V30 74 1 3 67
M  V30 75 1 4 46
M  V30 76 1 5 49
M  V30 77 1 7 64
M  V30 78 1 8 85
M  V30 79 1 9 61
M  V30 80 1 10 94
M  V30 81 1 12 91
M  V30 82 1 13 73
M  V30 83 1 14 76
M  V30 84 1 15 82
M  V30 85 1 17 93
M  V30 86 1 18 90
M  V30 87 1 19 78
M  V30 88 1 20 58
M  V30 89 1 22 52
M  V30 90 1 23 70
M  V30 91 1 24 55
M  V30 92 1 25 96
M  V30 93 1 27 72
M  V30 94 1 28 79
M  V30 95 1 29 66
M  V30 96 1 30 84
M  V30 97 1 32 97
M  V30 98 1 33 69
M  V30 99 1 34 48
M  V30 100 1 35 63
M  V30 101 1 37 60
M  V30 102 1 38 51
M  V30 103 1 39 57
M  V30 104 1 40 54
M  V30 105 1 42 75
M  V30 106 1 43 87
M  V30 107 1 44 99
M  V30 108 1 45 81
M  V30 END BOND
M  V30 END CTAB
M  END

$$$$
