
     RDKit          3D

  0  0  0  0  0  0  0  0  0  0999 V3000
M  V30 BEGIN CTAB
M  V30 COUNTS 99 108 0 0 0
M  V30 BEGIN ATOM
M  V30 1 Pd -2.1400 -3.2950 4.1411 0
M  V30 2 Pb -2.4932 -3.3105 5.0708 0
M  V30 3 Pb -2.5737 -4.1355 3.8440 0
M  V30 4 Pb -1.7398 -2.3889 4.3425 0
M  V30 5 Pb -1.7670 -3.2157 3.2212 0
M  V30 6 Pd -1.9331 2.5770 2.7596 0
M  V30 7 Pb -2.9243 2.5225 2.9085 0
M  V30 8 Pb -0.9632 2.7529 2.6305 0
M  V30 9 Pb -2.1329 3.3884 2.2203 0
M  V30 10 Pb -1.6748 1.7303 3.2615 0
M  V30 11 Pd -2.2259 -3.5698 -2.6419 0
M  V30 12 Pb -1.2867 -3.7911 -2.3764 0
M  V30 13 Pb -2.5366 -4.1024 -1.8588 0
M  V30 14 Pb -3.1517 -3.2037 -2.7286 0
M  V30 15 Pb -1.9649 -3.1507 -3.5161 0
M  V30 16 Pd -0.3723 2.1365 4.7989 0
M  V30 17 Pb -1.3243 2.2578 4.4819 0
M  V30 18 Pb 0.0797 2.7206 4.1063 0
M  V30 19 Pb -0.7709 1.6518 5.5724 0
M  V30 20 Pb 0.5298 1.7734 5.0439 0
M  V30 21 Pd 2.7313 -0.0552 1.5713 0
M  V30 22 Pb 2.7949 -0.2061 2.5592 0
M  V30 23 Pb 2.4812 0.8786 1.7999 0
M  V30 24 Pb 3.4278 -0.7400 1.3741 0
M  V30 25 Pb 2.4851 -0.9827 1.2746 0
M  V30 26 Pd 5.6291 -0.8390 -4.5778 0
M  V30 27 Pb 5.7608 -1.4528 -3.8045 0
M  V30 28 Pb 5.7215 -0.0708 -3.9401 0
M  V30 29 Pb 5.3485 -1.5884 -5.1817 0
M  V30 30 Pb 5.4786 -0.2062 -5.3298 0
M  V30 31 Pd -4.0926 -0.2518 0.8382 0
M  V30 32 Pb -4.4859 -0.6813 0.0157 0
M  V30 33 Pb -3.2557 -0.7742 0.6938 0
M  V30 34 Pb -4.9058 0.2802 1.0341 0
M  V30 35 Pb -3.7594 0.2375 1.6685 0
M  V30 36 Pd 1.1750 3.9980 -0.6554 0
M  V30 37 Pb 1.3686 4.0844 0.3280 0
M  V30 38 Pb 2.0863 3.6153 -0.8438 0
M  V30 39 Pb 0.9115 3.8783 -1.6124 0
M  V30 40 Pb 0.2947 4.4342 -0.4890 0
M  V30 41 Pd 1.2584 -0.6052 -6.5786 0
M  V30 42 Pb 0.4527 -1.1499 -6.3365 0
M  V30 43 Pb 1.8257 -1.4175 -6.7373 0
M  V30 44 Pb 0.7822 0.2339 -6.3262 0
M  V30 45 Pb 2.0308 -0.0449 -6.8658 0
M  V30 46 Ag -2.8545 -4.6657 3.4114 0
M  V30 47 Fe -2.9331 -4.8222 1.0524 0
M  V30 48 Ag -2.7710 -4.5270 -1.2904 0
M  V30 49 Ag 5.6946 0.4879 -3.4355 0
M  V30 50 Fe 4.2645 1.9415 -2.2067 0
M  V30 51 Ag 2.7813 3.3654 -1.0062 0
M  V30 52 Ag 0.6616 3.7650 -2.3104 0
M  V30 53 Fe 0.5372 2.3750 -4.2304 0
M  V30 54 Ag 0.5104 0.8841 -6.0770 0
M  V30 55 Ag -0.6279 -3.8941 -2.0283 0
M  V30 56 Fe 0.9114 -2.8441 -0.5484 0
M  V30 57 Ag 2.3329 -1.6376 0.9303 0
M  V30 58 Ag 3.9237 -1.2285 1.1069 0
M  V30 59 Fe 5.0000 -1.7235 -0.9432 0
M  V30 60 Ag 5.8208 -1.8254 -3.1619 0
M  V30 61 Ag -2.6348 -3.0632 5.7518 0
M  V30 62 Fe -2.0231 -0.8892 6.4240 0
M  V30 63 Ag -1.0921 1.2564 6.1159 0
M  V30 64 Ba -3.8242 -2.8734 -2.6841 0
M  V30 65 Ga -4.3311 -1.9310 -1.6596 0
M  V30 66 Ba -4.7854 -0.9927 -0.6068 0
M  V30 67 Ba -1.5115 -3.0948 2.5314 0
M  V30 68 Ga -2.0258 -2.1664 1.5165 0
M  V30 69 Ba -2.6490 -1.2002 0.6029 0
M  V30 70 Ba -1.8657 -2.9120 -4.2245 0
M  V30 71 Ga -0.9541 -2.2000 -5.1453 0
M  V30 72 Ba -0.1871 -1.5258 -6.2148 0
M  V30 73 Ba -0.2453 2.9346 2.5537 0
M  V30 74 Ga 1.0166 2.2446 2.2543 0
M  V30 75 Ba 2.2915 1.5802 1.9555 0
M  V30 76 Ba 1.1620 1.3861 5.1807 0
M  V30 77 Ga 2.0312 0.5879 4.2861 0
M  V30 78 Ba 2.8402 -0.1773 3.3101 0
M  V30 79 Ba 0.5231 3.1936 3.7036 0
M  V30 80 Ga 0.9497 3.6382 2.3506 0
M  V30 81 Ba 1.4766 4.1785 1.0706 0
M  V30 82 Ba -2.0624 2.2026 4.2855 0
M  V30 83 Ga -2.8339 1.3786 3.2942 0
M  V30 84 Ba -3.6934 0.7082 2.2747 0
M  V30 85 Ba -1.4254 -1.7111 4.4852 0
M  V30 86 Ga -1.4866 -0.2950 4.0233 0
M  V30 87 Ba -1.4079 1.1570 3.6961 0
M  V30 88 Ba -3.6777 2.5404 2.9465 0
M  V30 89 Ga -4.6681 1.7455 2.2083 0
M  V30 90 Ba -5.3566 0.7685 1.3584 0
M  V30 91 Ba 5.2986 0.2470 -5.8913 0
M  V30 92 Ga 3.9884 0.3687 -6.5378 0
M  V30 93 Ba 2.6218 0.3629 -7.0691 0
M  V30 94 Ba -2.2362 3.9718 1.7704 0
M  V30 95 Ga -1.3502 4.4321 0.6965 0
M  V30 96 Ba -0.3581 4.7600 -0.3326 0
M  V30 97 Ba 5.0361 -2.1045 -5.6330 0
M  V30 98 Ga 3.6921 -2.1035 -6.2554 0
M  V30 99 Ba 2.3265 -1.9759 -6.8151 0
M  V30 END ATOM
M  V30 BEGIN BOND
M  V30 1 1 1 2
M  V30 2 1 1 3
M  V30 3 1 1 4
M  V30 4 1 1 5
M  V30 5 1 6 7
M  V30 6 1 6 8
M  V30 7 1 6 9
M  V30 8 1 6 10
M  V30 9 1 11 12
M  V30 10 1 11 13
M  V30 11 1 11 14
M  V30 12 1 11 15
M  V30 13 1 16 17
M  V30 14 1 16 18
M  V30 15 1 16 19
M  V30 16 1 16 20
M  V30 17 1 21 22
M  V30 18 1 21 23
M  V30 19 1 21 24
M  V30 20 1 21 25
M  V30 21 1 26 27
M  V30 22 1 26 28
M  V30 23 1 26 29
M  V30 24 1 26 30
M  V30 25 1 31 32
M  V30 26 1 31 33
M  V30 27 1 31 34
M  V30 28 1 31 35
M  V30 29 1 36 37
M  V30 30 1 36 38
M  V30 31 1 36 39
M  V30 32 1 36 40
M  V30 33 1 41 42
M  V30 34 1 41 43
M  V30 35 1 41 44
M  V30 36 1 41 45
M  V30 37 1 46 47
M  V30 38 1 47 48
M  V30 39 1 49 50
M  V30 40 1 50 51
M  V30 41 1 52 53
M  V30 42 1 53 54
M  V30 43 1 55 56
M  V30 44 1 56 57
M  V30 45 1 58 59
M  V30 46 1 59 60
M  V30 47 1 61 62
M  V30 48 1 62 63
M  V30 49 1 64 65
M  V30 50 1 65 66
M  V30 51 1 67 68
M  V30 52 1 68 69
M  V30 53 1 70 71
M  V30 54 1 71 72
M  V30 55 1 73 74
M  V30 56 1 74 75
M  V30 57 1 76 77
M  V30 58 1 77 78
M  V30 59 1 79 80
M  V30 60 1 80 81
M  V30 61 1 82 83
M  V30 62 1 83 84
M  V30 63 1 85 86
M  V30 64 1 86 87
M  V30 65 1 88 89
M  V30 66 1 89 90
M  V30 67 1 91 92
M  V30 68 1 92 93
M  V30 69 1 94 95
M  V30 70 1 95 96
M  V30 71 1 97 98
M  V30 72 1 98 99
M  V30 73 1 2 61
M  V30 74 1 3 46
M  V30 75 1 4 85
M  V30 76 1 5 67
M  V30 77 1 7 88
M  V30 78 1 8 73
M  V30 79 1 9 94
M  V30 80 1 10 87
M  V30 81 1 12 55
M  V30 82 1 13 48
M  V30 83 1 14 64
M  V30 84 1 15 70
M  V30 85 1 17 82
M  V30 86 1 18 79
M  V30 87 1 19 63
M  V30 88 1 20 76
M  V30 89 1 22 78
M  V30 90 1 23 75
M  V30 91 1 24 58
M  V30 92 1 25 57
M  V30 93 1 27 60
M  V30 94 1 28 49
M  V30 95 1 29 97
M  V30 96 1 30 91
M  V30 97 1 32 66
M  V30 98 1 33 69
M  V30 99 1 34 90
M  V30 100 1 35 84
M  V30 101 1 37 81
M  V30 102 1 38 51
M  V30 103 1 39 52
M  V30 104 1 40 96
M  V30 105 1 42 72
M  V30 106 1 43 99
M  V30 107 1 44 54
M  V30 108 1 45 93
M  V30 END BOND
M  V30 END CTAB
M  END

$$$$
