
     RDKit          3D

  0  0  0  0  0  0  0  0  0  0999 V3000
M  V30 BEGIN CTAB
M  V30 COUNTS 99 108 0 0 0
M  V30 BEGIN ATOM
M  V30 1 Pd -1.3684 -4.0512 -1.2505 0
M  V30 2 Pb -2.2733 -4.0997 -0.8176 0
M  V30 3 Pb -1.0517 -4.8502 -0.7354 0
M  V30 4 Pb -1.6614 -3.3075 -1.8491 0
M  V30 5 Pb -0.4500 -3.9557 -1.6297 0
M  V30 6 Pd 0.5231 1.8293 -6.1405 0
M  V30 7 Pb 0.9902 2.6474 -6.4722 0
M  V30 8 Pb 1.3636 1.5806 -5.6587 0
M  V30 9 Pb -0.0030 1.0960 -5.7078 0
M  V30 10 Pb -0.3429 2.1443 -6.5195 0
M  V30 11 Pd 1.7545 4.7324 -2.8096 0
M  V30 12 Pb 1.5263 4.3735 -1.9057 0
M  V30 13 Pb 2.3989 3.9835 -2.9643 0
M  V30 14 Pb 1.0069 5.3878 -2.6997 0
M  V30 15 Pb 1.9318 5.0369 -3.7455 0
M  V30 16 Pd -5.1561 -0.5575 0.9980 0
M  V30 17 Pb -5.4424 -0.4882 0.0409 0
M  V30 18 Pb -4.9616 -0.5974 1.9814 0
M  V30 19 Pb -5.3338 0.4216 1.1058 0
M  V30 20 Pb -4.9868 -1.5412 0.8779 0
M  V30 21 Pd 3.6877 3.0358 2.4009 0
M  V30 22 Pb 4.2475 2.6326 1.6594 0
M  V30 23 Pb 3.0786 3.2752 3.1535 0
M  V30 24 Pb 2.9070 3.1518 1.7884 0
M  V30 25 Pb 4.4415 2.8776 3.0316 0
M  V30 26 Pd -5.2608 3.4886 -2.4115 0
M  V30 27 Pb -5.4293 3.4772 -1.4267 0
M  V30 28 Pb -5.6674 2.5776 -2.4809 0
M  V30 29 Pb -4.7438 4.3424 -2.3376 0
M  V30 30 Pb -5.0606 3.4759 -3.3895 0
M  V30 31 Pd 1.6087 -5.0621 3.1137 0
M  V30 32 Pb 1.8827 -4.3926 3.8052 0
M  V30 33 Pb 2.5572 -5.1676 2.8023 0
M  V30 34 Pb 0.6692 -5.0055 3.4462 0
M  V30 35 Pb 1.2772 -5.6831 2.4067 0
M  V30 36 Pd 5.6304 -2.1115 0.7927 0
M  V30 37 Pb 5.5679 -3.0574 1.1117 0
M  V30 38 Pb 6.1899 -1.8648 1.5783 0
M  V30 39 Pb 5.0642 -2.3592 0.0080 0
M  V30 40 Pb 5.6296 -1.1352 0.5140 0
M  V30 41 Pd -1.2813 -1.2007 5.2173 0
M  V30 42 Pb -2.2352 -0.9445 5.0606 0
M  V30 43 Pb -1.5271 -2.1509 5.0478 0
M  V30 44 Pb -0.3294 -1.4823 5.3621 0
M  V30 45 Pb -1.0134 -0.2490 5.3674 0
M  V30 46 Ag 0.2494 -3.8489 -1.8729 0
M  V30 47 Fe 2.4598 -3.2176 -1.2835 0
M  V30 48 Ag 4.6253 -2.5694 -0.5611 0
M  V30 49 Ag -1.0326 2.3800 -6.6787 0
M  V30 50 Fe -3.0362 2.9569 -5.5500 0
M  V30 51 Ag -4.8515 3.4523 -4.1074 0
M  V30 52 Ag 2.5590 3.3317 3.6878 0
M  V30 53 Fe 0.8509 2.0168 4.6801 0
M  V30 54 Ag -0.7563 0.4502 5.4516 0
M  V30 55 Ag 5.0098 2.6038 3.4208 0
M  V30 56 Fe 6.1314 0.5462 3.1742 0
M  V30 57 Ag 6.5254 -1.5420 2.1557 0
M  V30 58 Ag -1.8412 -2.7854 -2.3552 0
M  V30 59 Fe -1.1229 -1.0807 -3.8456 0
M  V30 60 Ag -0.4822 0.6308 -5.3632 0
M  V30 61 Ag 0.3767 5.7846 -2.6081 0
M  V30 62 Fe -1.9780 5.5177 -2.4386 0
M  V30 63 Ag -4.2761 4.9292 -2.3087 0
M  V30 64 Ba 2.0388 -3.8668 4.3180 0
M  V30 65 Ga 1.2264 -2.7799 4.9035 0
M  V30 66 Ba 0.3825 -1.7047 5.4659 0
M  V30 67 Ba -5.7083 -0.4115 -0.6579 0
M  V30 68 Ga -5.8174 0.7184 -1.6022 0
M  V30 69 Ba -5.9097 1.8687 -2.5233 0
M  V30 70 Ba -0.7818 -5.4718 -0.4086 0
M  V30 71 Ga 0.0901 -5.7990 0.7358 0
M  V30 72 Ba 0.9608 -6.1150 1.8843 0
M  V30 73 Ba -4.8934 -0.5664 2.7312 0
M  V30 74 Ga -3.8879 -0.6890 3.8067 0
M  V30 75 Ba -2.9617 -0.7915 4.9533 0
M  V30 76 Ba 1.2942 4.0959 -1.2501 0
M  V30 77 Ga 1.8457 3.6730 0.0494 0
M  V30 78 Ba 2.2809 3.2218 1.3832 0
M  V30 79 Ba -5.4704 1.1557 1.1849 0
M  V30 80 Ga -5.5125 2.3059 0.2624 0
M  V30 81 Ba -5.5461 3.4334 -0.6880 0
M  V30 82 Ba 3.2701 -5.2829 2.5861 0
M  V30 83 Ga 4.3706 -4.5122 1.9702 0
M  V30 84 Ba 5.4859 -3.7624 1.3552 0
M  V30 85 Ba 1.9866 1.4906 -5.2504 0
M  V30 86 Ga 2.4811 2.3777 -4.1804 0
M  V30 87 Ba 2.8050 3.3800 -3.1474 0
M  V30 88 Ba 1.3273 3.3002 -6.6152 0
M  V30 89 Ga 1.7269 4.3075 -5.6169 0
M  V30 90 Ba 2.0486 5.1783 -4.4725 0
M  V30 91 Ba -2.9397 -4.1373 -0.4659 0
M  V30 92 Ga -3.8973 -3.1859 0.1443 0
M  V30 93 Ba -4.8909 -2.2826 0.7702 0
M  V30 94 Ba -0.0345 -4.9823 3.6996 0
M  V30 95 Ga -0.8792 -3.9402 4.3026 0
M  V30 96 Ba -1.6847 -2.8651 4.9010 0
M  V30 97 Ba 4.6600 2.3002 1.1099 0
M  V30 98 Ga 5.1285 0.9304 0.7437 0
M  V30 99 Ba 5.6400 -0.4006 0.3004 0
M  V30 END ATOM
M  V30 BEGIN BOND
M  V30 1 1 1 2
M  V30 2 1 1 3
M  V30 3 1 1 4
M  V30 4 1 1 5
M  V30 5 1 6 7
M  V30 6 1 6 8
M  V30 7 1 6 9
M  V30 8 1 6 10
M  V30 9 1 11 12
M  V30 10 1 11 13
M  V30 11 1 11 14
M  V30 12 1 11 15
M  V30 13 1 16 17
M  V30 14 1 16 18
M  V30 15 1 16 19
M  V30 16 1 16 20
M  V30 17 1 21 22
M  V30 18 1 21 23
M  V30 19 1 21 24
M  V30 20 1 21 25
M  V30 21 1 26 27
M  V30 22 1 26 28
M  V30 23 1 26 29
M  V30 24 1 26 30
M  V30 25 1 31 32
M  V30 26 1 31 33
M  V30 27 1 31 34
M  V30 28 1 31 35
M  V30 29 1 36 37
M  V30 30 1 36 38
M  V30 31 1 36 39
M  V30 32 1 36 40
M  V30 33 1 41 42
M  V30 34 1 41 43
M  V30 35 1 41 44
M  V30 36 1 41 45
M  V30 37 1 46 47
M  V30 38 1 47 48
M  V30 39 1 49 50
M  V30 40 1 50 51
M  V30 41 1 52 53
M  V30 42 1 53 54
M  V30 43 1 55 56
M  V30 44 1 56 57
M  V30 45 1 58 59
M  V30 46 1 59 60
M  V30 47 1 61 62
M  V30 48 1 62 63
M  V30 49 1 64 65
M  V30 50 1 65 66
M  V30 51 1 67 68
M  V30 52 1 68 69
M  V30 53 1 70 71
M  V30 54 1 71 72
M  V30 55 1 73 74
M  V30 56 1 74 75
M  V30 57 1 76 77
M  V30 58 1 77 78
M  V30 59 1 79 80
M  V30 60 1 80 81
M  V30 61 1 82 83
M  V30 62 1 83 84
M  V30 63 1 85 86
M  V30 64 1 86 87
M  V30 65 1 88 89
M  V30 66 1 89 90
M  V30 67 1 91 92
M  V30 68 1 92 93
M  V30 69 1 94 95
M  V30 70 1 95 96
M  V30 71 1 97 98
M  V30 72 1 98 99
M  V30 73 1 2 91
M  V30 74 1 3 70
M  V30 75 1 4 58
M  V30 76 1 5 46
M  V30 77 1 7 88
M  V30 78 1 8 85
M  V30 79 1 9 60
M  V30 80 1 10 49
M  V30 81 1 12 76
M  V30 82 1 13 87
M  V30 83 1 14 61
M  V30 84 1 15 90
M  V30 85 1 17 67
M  V30 86 1 18 73
M  V30 87 1 19 79
M  V30 88 1 20 93
M  V30 89 1 22 97
M  V30 90 1 23 52
M  V30 91 1 24 78
M  V30 92 1 25 55
M  V30 93 1 27 81
M  V30 94 1 28 69
M  V30 95 1 29 63
M  V30 96 1 30 51
M  V30 97 1 32 64
M  V30 98 1 33 82
M  V30 99 1 34 94
M  V30 100 1 35 72
M  V30 101 1 37 84
M  V30 102 1 38 57
M  V30 103 1 39 48
M  V30 104 1 40 99
M  V30 105 1 42 75
M  V30 106 1 43 96
M  V30 107 1 44 66
M  V30 108 1 45 54
M  V30 END BOND
M  V30 END CTAB
M  END

$$$$
