
     RDKit          3D

  0  0  0  0  0  0  0  0  0  0999 V3000
M  V30 BEGIN CTAB
M  V30 COUNTS 99 108 0 0 0
M  V30 BEGIN ATOM
M  V30 1 Pd -3.1916 -2.3190 2.8943 0
M  V30 2 Pb -3.5147 -1.6632 2.2025 0
M  V30 3 Pb -2.4285 -1.7483 3.2044 0
M  V30 4 Pb -3.9013 -2.9513 2.5711 0
M  V30 5 Pb -2.9344 -2.9205 3.6529 0
M  V30 6 Pd 1.8581 5.5603 -1.0242 0
M  V30 7 Pb 1.9005 4.8594 -1.7533 0
M  V30 8 Pb 2.7325 5.1962 -0.7060 0
M  V30 9 Pb 0.9389 5.9155 -1.2585 0
M  V30 10 Pb 1.8817 6.1509 -0.2192 0
M  V30 11 Pd -3.1234 -6.9208 0.0456 0
M  V30 12 Pb -3.8645 -6.3355 0.3846 0
M  V30 13 Pb -2.9767 -7.2746 0.9788 0
M  V30 14 Pb -2.3418 -7.4642 -0.2512 0
M  V30 15 Pb -3.1789 -6.5332 -0.8731 0
M  V30 16 Pd 4.1282 -0.9242 0.1784 0
M  V30 17 Pb 4.1865 -0.4999 -0.7268 0
M  V30 18 Pb 4.0876 -1.3277 1.0939 0
M  V30 19 Pb 4.6417 -0.1298 0.4890 0
M  V30 20 Pb 3.5231 -1.6504 -0.1466 0
M  V30 21 Pd 1.9913 3.3295 3.1465 0
M  V30 22 Pb 2.1815 4.3121 3.0928 0
M  V30 23 Pb 1.0615 3.5580 3.4025 0
M  V30 24 Pb 1.8692 3.8260 2.2831 0
M  V30 25 Pb 1.8594 2.4654 3.6240 0
M  V30 26 Pd 0.4141 -1.6936 -3.9178 0
M  V30 27 Pb 0.9657 -0.8573 -3.7905 0
M  V30 28 Pb -0.2240 -2.4544 -4.0331 0
M  V30 29 Pb 0.1973 -1.3285 -4.8183 0
M  V30 30 Pb 0.7252 -2.1048 -3.0595 0
M  V30 31 Pd 0.5173 -6.1304 4.2179 0
M  V30 32 Pb -0.1123 -5.5775 4.7594 0
M  V30 33 Pb -0.2621 -6.7387 4.0169 0
M  V30 34 Pb 1.2591 -5.4696 4.3339 0
M  V30 35 Pb 1.0857 -6.6881 3.6183 0
M  V30 36 Pd 1.5613 4.4299 -4.7110 0
M  V30 37 Pb 1.4927 3.9729 -5.5919 0
M  V30 38 Pb 2.3378 3.8442 -4.4772 0
M  V30 39 Pb 0.7033 4.8741 -4.9411 0
M  V30 40 Pb 1.5136 4.7679 -3.7629 0
M  V30 41 Pd -3.7963 4.5045 -0.7796 0
M  V30 42 Pb -3.1681 5.2841 -0.9055 0
M  V30 43 Pb -3.9321 4.5633 -1.7609 0
M  V30 44 Pb -3.6499 4.5027 0.2006 0
M  V30 45 Pb -4.2614 3.6220 -0.6879 0
M  V30 46 Ag -1.6826 -7.7990 -0.3256 0
M  V30 47 Fe 0.1905 -7.7622 1.1073 0
M  V30 48 Ag 1.3375 -7.1107 3.0623 0
M  V30 49 Ag -1.8115 -1.4280 3.4938 0
M  V30 50 Fe -0.0820 0.1856 3.7161 0
M  V30 51 Ag 1.6317 1.8184 3.9196 0
M  V30 52 Ag 2.0333 4.2664 -2.2122 0
M  V30 53 Fe 1.6399 2.0344 -2.9604 0
M  V30 54 Ag 1.3219 -0.1856 -3.7768 0
M  V30 55 Ag 4.2839 -0.1142 -1.3647 0
M  V30 56 Fe 3.5921 1.6033 -2.8548 0
M  V30 57 Ag 2.8591 3.3283 -4.3162 0
M  V30 58 Ag 3.3443 4.8757 -0.4176 0
M  V30 59 Fe 4.3121 2.7944 0.1767 0
M  V30 60 Ag 4.9300 0.5469 0.6087 0
M  V30 61 Ag 0.1626 -0.9596 -5.4636 0
M  V30 62 Fe 0.6824 1.2331 -6.1780 0
M  V30 63 Ag 1.3281 3.5067 -6.1461 0
M  V30 64 Ag 0.3524 3.7254 3.5329 0
M  V30 65 Fe -1.6789 4.1414 2.4026 0
M  V30 66 Ag -3.4850 4.4924 0.9222 0
M  V30 67 Ag 1.7393 4.2123 1.6493 0
M  V30 68 Fe 1.5004 4.4314 -0.7080 0
M  V30 69 Ag 1.4494 4.9797 -3.0374 0
M  V30 70 Ag -3.8486 -1.1990 1.7066 0
M  V30 71 Fe -4.1787 0.8624 0.5617 0
M  V30 72 Ag -4.5118 2.9186 -0.5915 0
M  V30 73 Ag 4.0376 -1.6569 1.7673 0
M  V30 74 Fe 2.9623 -3.2859 3.1223 0
M  V30 75 Ag 1.8000 -4.9500 4.3572 0
M  V30 76 Ag -3.1283 -6.2354 -1.5582 0
M  V30 77 Fe -1.9843 -4.6380 -2.8908 0
M  V30 78 Ag -0.7433 -2.9938 -4.0712 0
M  V30 79 Ag -0.0005 5.0639 -5.0829 0
M  V30 80 Fe -2.1120 4.9842 -4.0251 0
M  V30 81 Ag -3.8828 4.7205 -2.4834 0
M  V30 82 Ba 3.0252 -2.1718 -0.3527 0
M  V30 83 Ga 2.0073 -2.3026 -1.4137 0
M  V30 84 Ba 0.9762 -2.4755 -2.4557 0
M  V30 85 Ba -4.4257 -3.4183 2.2959 0
M  V30 86 Ga -4.4134 -4.6571 1.4856 0
M  V30 87 Ba -4.4032 -5.8961 0.6754 0
M  V30 88 Ba 0.2614 6.2513 -1.3614 0
M  V30 89 Ga -1.1977 5.9939 -1.2049 0
M  V30 90 Ba -2.6741 5.8343 -1.0818 0
M  V30 91 Ba -2.7281 -3.2897 4.2750 0
M  V30 92 Ga -1.6835 -4.2451 4.6914 0
M  V30 93 Ba -0.6474 -5.2025 5.1239 0
M  V30 94 Ba 1.9676 6.4955 0.4404 0
M  V30 95 Ga 2.1184 5.8529 1.7602 0
M  V30 96 Ba 2.2482 5.0552 2.9953 0
M  V30 97 Ba -2.8384 -7.5511 1.6719 0
M  V30 98 Ga -1.8394 -7.3416 2.7532 0
M  V30 99 Ba -0.8665 -7.1718 3.8648 0
M  V30 END ATOM
M  V30 BEGIN BOND
M  V30 1 1 1 2
M  V30 2 1 1 3
M  V30 3 1 1 4
M  V30 4 1 1 5
M  V30 5 1 6 7
M  V30 6 1 6 8
M  V30 7 1 6 9
M  V30 8 1 6 10
M  V30 9 1 11 12
M  V30 10 1 11 13
M  V30 11 1 11 14
M  V30 12 1 11 15
M  V30 13 1 16 17
M  V30 14 1 16 18
M  V30 15 1 16 19
M  V30 16 1 16 20
M  V30 17 1 21 22
M  V30 18 1 21 23
M  V30 19 1 21 24
M  V30 20 1 21 25
M  V30 21 1 26 27
M  V30 22 1 26 28
M  V30 23 1 26 29
M  V30 24 1 26 30
M  V30 25 1 31 32
M  V30 26 1 31 33
M  V30 27 1 31 34
M  V30 28 1 31 35
M  V30 29 1 36 37
M  V30 30 1 36 38
M  V30 31 1 36 39
M  V30 32 1 36 40
M  V30 33 1 41 42
M  V30 34 1 41 43
M  V30 35 1 41 44
M  V30 36 1 41 45
M  V30 37 1 46 47
M  V30 38 1 47 48
M  V30 39 1 49 50
M  V30 40 1 50 51
M  V30 41 1 52 53
M  V30 42 1 53 54
M  V30 43 1 55 56
M  V30 44 1 56 57
M  V30 45 1 58 59
M  V30 46 1 59 60
M  V30 47 1 61 62
M  V30 48 1 62 63
M  V30 49 1 64 65
M  V30 50 1 65 66
M  V30 51 1 67 68
M  V30 52 1 68 69
M  V30 53 1 70 71
M  V30 54 1 71 72
M  V30 55 1 73 74
M  V30 56 1 74 75
M  V30 57 1 76 77
M  V30 58 1 77 78
M  V30 59 1 79 80
M  V30 60 1 80 81
M  V30 61 1 82 83
M  V30 62 1 83 84
M  V30 63 1 85 86
M  V30 64 1 86 87
M  V30 65 1 88 89
M  V30 66 1 89 90
M  V30 67 1 91 92
M  V30 68 1 92 93
M  V30 69 1 94 95
M  V30 70 1 95 96
M  V30 71 1 97 98
M  V30 72 1 98 99
M  V30 73 1 2 70
M  V30 74 1 3 49
M  V30 75 1 4 85
M  V30 76 1 5 91
M  V30 77 1 7 52
M  V30 78 1 8 58
M  V30 79 1 9 88
M  V30 80 1 10 94
M  V30 81 1 12 87
M  V30 82 1 13 97
M  V30 83 1 14 46
M  V30 84 1 15 76
M  V30 85 1 17 55
M  V30 86 1 18 73
M  V30 87 1 19 60
M  V30 88 1 20 82
M  V30 89 1 22 96
M  V30 90 1 23 64
M  V30 91 1 24 67
M  V30 92 1 25 51
M  V30 93 1 27 54
M  V30 94 1 28 78
M  V30 95 1 29 61
M  V30 96 1 30 84
M  V30 97 1 32 93
M  V30 98 1 33 99
M  V30 99 1 34 75
M  V30 100 1 35 48
M  V30 101 1 37 63
M  V30 102 1 38 57
M  V30 103 1 39 79
M  V30 104 1 40 69
M  V30 105 1 42 90
M  V30 106 1 43 81
M  V30 107 1 44 66
M  V30 108 1 45 72
M  V30 END BOND
M  V30 END CTAB
M  END

$$$$
