
     RDKit          3D

  0  0  0  0  0  0  0  0  0  0999 V3000
M  V30 BEGIN CTAB
M  V30 COUNTS 99 108 0 0 0
M  V30 BEGIN ATOM
M  V30 1 Pd -0.3693 -0.7280 4.9824 0
M  V30 2 Pb 0.2548 -1.3366 4.4866 0
M  V30 3 Pb -0.5374 -1.4677 5.6425 0
M  V30 4 Pb -0.1602 0.0519 4.3917 0
M  V30 5 Pb -1.0154 -0.1086 5.4318 0
M  V30 6 Pd -4.7320 -2.7760 -0.0978 0
M  V30 7 Pb -3.9660 -2.2947 -0.5224 0
M  V30 8 Pb -4.1168 -3.5407 0.1054 0
M  V30 9 Pb -5.3382 -1.9804 -0.1419 0
M  V30 10 Pb -5.4416 -3.2859 0.3809 0
M  V30 11 Pd 4.1095 -1.7785 -5.4741 0
M  V30 12 Pb 3.9186 -2.5872 -4.9158 0
M  V30 13 Pb 3.1838 -1.8054 -5.8480 0
M  V30 14 Pb 4.2893 -0.9577 -6.0201 0
M  V30 15 Pb 5.0023 -1.7114 -5.0291 0
M  V30 16 Pd 3.0681 5.6495 -5.7299 0
M  V30 17 Pb 3.4420 4.9444 -6.3324 0
M  V30 18 Pb 3.9431 5.7220 -5.2506 0
M  V30 19 Pb 2.1486 5.5162 -6.0984 0
M  V30 20 Pb 2.6925 6.2511 -5.0278 0
M  V30 21 Pd -2.3196 1.2924 -3.7261 0
M  V30 22 Pb -2.2530 0.5394 -3.0732 0
M  V30 23 Pb -1.9850 0.6818 -4.4423 0
M  V30 24 Pb -2.2710 2.0527 -4.3733 0
M  V30 25 Pb -2.5871 1.8963 -2.9749 0
M  V30 26 Pd 3.9729 4.6408 1.0498 0
M  V30 27 Pb 4.7058 4.9122 0.4262 0
M  V30 28 Pb 4.5266 3.8891 1.4026 0
M  V30 29 Pb 3.1735 4.3038 1.5468 0
M  V30 30 Pb 3.4199 5.3559 0.6252 0
M  V30 31 Pd 5.0238 -2.5307 -0.4626 0
M  V30 32 Pb 4.3868 -2.7966 0.2636 0
M  V30 33 Pb 5.3981 -1.8347 0.1475 0
M  V30 34 Pb 5.6575 -2.2597 -1.1900 0
M  V30 35 Pb 4.6160 -3.1872 -1.0966 0
M  V30 36 Pd -5.0504 1.2154 3.3285 0
M  V30 37 Pb -4.6181 1.8150 2.6546 0
M  V30 38 Pb -5.4808 0.6311 4.0167 0
M  V30 39 Pb -5.6504 0.9114 2.5826 0
M  V30 40 Pb -4.4214 1.4797 4.0637 0
M  V30 41 Pd -3.7181 -5.0445 6.0962 0
M  V30 42 Pb -3.1814 -5.5087 5.3930 0
M  V30 43 Pb -2.8969 -4.6706 6.5282 0
M  V30 44 Pb -4.2997 -4.4159 6.6029 0
M  V30 45 Pb -4.5341 -5.3175 5.5943 0
M  V30 46 Ag 0.6971 -1.8225 4.1192 0
M  V30 47 Fe 2.3101 -2.3753 2.4621 0
M  V30 48 Ag 3.9205 -2.9852 0.8225 0
M  V30 49 Ag -2.7493 2.3103 -2.3704 0
M  V30 50 Fe -3.5364 2.3387 -0.1292 0
M  V30 51 Ag -4.3406 2.2427 2.1040 0
M  V30 52 Ag 1.4336 5.3804 -6.2774 0
M  V30 53 Fe -0.4413 4.0536 -5.6750 0
M  V30 54 Ag -2.1372 2.6013 -4.8667 0
M  V30 55 Ag 4.5301 5.7562 -4.7847 0
M  V30 56 Fe 5.0502 5.4735 -2.4846 0
M  V30 57 Ag 5.1578 5.1015 -0.1414 0
M  V30 58 Ag -5.8731 -3.7048 0.8211 0
M  V30 59 Fe -5.7461 -4.6886 2.9710 0
M  V30 60 Ag -5.1116 -5.4140 5.1335 0
M  V30 61 Ag -3.6826 -4.0883 0.3839 0
M  V30 62 Fe -3.1200 -5.0794 2.4693 0
M  V30 63 Ag -2.8839 -5.7314 4.7421 0
M  V30 64 Ag 2.4571 6.6074 -4.4143 0
M  V30 65 Fe 2.6295 6.4097 -2.0568 0
M  V30 66 Ag 3.0504 5.8584 0.2116 0
M  V30 67 Ag 4.3919 -0.3338 -6.4275 0
M  V30 68 Fe 4.0914 2.0142 -6.6387 0
M  V30 69 Ag 3.7233 4.3609 -6.7110 0
M  V30 70 Ag -0.0422 0.7009 4.0330 0
M  V30 71 Fe 1.3009 2.3287 2.9420 0
M  V30 72 Ag 2.5386 4.0286 1.8365 0
M  V30 73 Ag -5.7169 0.2137 4.5938 0
M  V30 74 Fe -5.3772 -1.7800 5.8349 0
M  V30 75 Ag -4.7648 -3.8639 6.7888 0
M  V30 76 Ag 4.9295 3.2941 1.6105 0
M  V30 77 Fe 5.3551 0.9998 1.1812 0
M  V30 78 Ag 5.6304 -1.2832 0.5967 0
M  V30 79 Ag 2.4717 -1.7756 -6.0766 0
M  V30 80 Fe 0.3449 -0.8321 -5.6088 0
M  V30 81 Ag -1.6748 0.2241 -4.9473 0
M  V30 82 Ba -3.3295 -2.0034 -0.7904 0
M  V30 83 Ga -2.8072 -0.9790 -1.7126 0
M  V30 84 Ba -2.1169 -0.0127 -2.5858 0
M  V30 85 Ba 5.6407 -1.6634 -4.6385 0
M  V30 86 Ga 5.9143 -1.8593 -3.2008 0
M  V30 87 Ba 6.1179 -2.0698 -1.7535 0
M  V30 88 Ba 3.7892 -3.1824 -4.4763 0
M  V30 89 Ga 4.0363 -3.4461 -3.0457 0
M  V30 90 Ba 4.3117 -3.6418 -1.6093 0
M  V30 91 Ba -5.8115 -1.3993 -0.0806 0
M  V30 92 Ga -5.9464 -0.3340 0.9381 0
M  V30 93 Ba -6.0538 0.7169 1.9750 0
M  V30 94 Ba -1.4854 0.4132 5.7012 0
M  V30 95 Ga -2.7333 1.0198 5.1889 0
M  V30 96 Ba -3.9800 1.6142 4.6592 0
M  V30 97 Ba -0.6029 -2.0132 6.1612 0
M  V30 98 Ga -1.4597 -3.1774 6.4759 0
M  V30 99 Ba -2.2891 -4.3501 6.8306 0
M  V30 END ATOM
M  V30 BEGIN BOND
M  V30 1 1 1 2
M  V30 2 1 1 3
M  V30 3 1 1 4
M  V30 4 1 1 5
M  V30 5 1 6 7
M  V30 6 1 6 8
M  V30 7 1 6 9
M  V30 8 1 6 10
M  V30 9 1 11 12
M  V30 10 1 11 13
M  V30 11 1 11 14
M  V30 12 1 11 15
M  V30 13 1 16 17
M  V30 14 1 16 18
M  V30 15 1 16 19
M  V30 16 1 16 20
M  V30 17 1 21 22
M  V30 18 1 21 23
M  V30 19 1 21 24
M  V30 20 1 21 25
M  V30 21 1 26 27
M  V30 22 1 26 28
M  V30 23 1 26 29
M  V30 24 1 26 30
M  V30 25 1 31 32
M  V30 26 1 31 33
M  V30 27 1 31 34
M  V30 28 1 31 35
M  V30 29 1 36 37
M  V30 30 1 36 38
M  V30 31 1 36 39
M  V30 32 1 36 40
M  V30 33 1 41 42
M  V30 34 1 41 43
M  V30 35 1 41 44
M  V30 36 1 41 45
M  V30 37 1 46 47
M  V30 38 1 47 48
M  V30 39 1 49 50
M  V30 40 1 50 51
M  V30 41 1 52 53
M  V30 42 1 53 54
M  V30 43 1 55 56
M  V30 44 1 56 57
M  V30 45 1 58 59
M  V30 46 1 59 60
M  V30 47 1 61 62
M  V30 48 1 62 63
M  V30 49 1 64 65
M  V30 50 1 65 66
M  V30 51 1 67 68
M  V30 52 1 68 69
M  V30 53 1 70 71
M  V30 54 1 71 72
M  V30 55 1 73 74
M  V30 56 1 74 75
M  V30 57 1 76 77
M  V30 58 1 77 78
M  V30 59 1 79 80
M  V30 60 1 80 81
M  V30 61 1 82 83
M  V30 62 1 83 84
M  V30 63 1 85 86
M  V30 64 1 86 87
M  V30 65 1 88 89
M  V30 66 1 89 90
M  V30 67 1 91 92
M  V30 68 1 92 93
M  V30 69 1 94 95
M  V30 70 1 95 96
M  V30 71 1 97 98
M  V30 72 1 98 99
M  V30 73 1 2 46
M  V30 74 1 3 97
M  V30 75 1 4 70
M  V30 76 1 5 94
M  V30 77 1 7 82
M  V30 78 1 8 61
M  V30 79 1 9 91
M  V30 80 1 10 58
M  V30 81 1 12 88
M  V30 82 1 13 79
M  V30 83 1 14 67
M  V30 84 1 15 85
M  V30 85 1 17 69
M  V30 86 1 18 55
M  V30 87 1 19 52
M  V30 88 1 20 64
M  V30 89 1 22 84
M  V30 90 1 23 81
M  V30 91 1 24 54
M  V30 92 1 25 49
M  V30 93 1 27 57
M  V30 94 1 28 76
M  V30 95 1 29 72
M  V30 96 1 30 66
M  V30 97 1 32 48
M  V30 98 1 33 78
M  V30 99 1 34 87
M  V30 100 1 35 90
M  V30 101 1 37 51
M  V30 102 1 38 73
M  V30 103 1 39 93
M  V30 104 1 40 96
M  V30 105 1 42 63
M  V30 106 1 43 99
M  V30 107 1 44 75
M  V30 108 1 45 60
M  V30 END BOND
M  V30 END CTAB
M  END

$$$$
