
     RDKit          3D

  0  0  0  0  0  0  0  0  0  0999 V3000
M  V30 BEGIN CTAB
M  V30 COUNTS 99 108 0 0 0
M  V30 BEGIN ATOM
M  V30 1 Pd 2.0792 3.1461 1.2712 0
M  V30 2 Pb 2.1214 3.4482 2.2213 0
M  V30 3 Pb 2.2962 2.2332 1.6148 0
M  V30 4 Pb 1.8665 4.0845 0.9954 0
M  V30 5 Pb 1.9888 2.8451 0.3170 0
M  V30 6 Pd 5.3128 -5.4217 -2.7715 0
M  V30 7 Pb 4.3575 -5.6887 -2.9082 0
M  V30 8 Pb 6.2632 -5.1750 -2.5947 0
M  V30 9 Pb 5.3135 -4.7997 -3.5558 0
M  V30 10 Pb 5.3310 -5.9074 -1.8962 0
M  V30 11 Pd -5.5016 -2.5222 3.0901 0
M  V30 12 Pb -4.6229 -2.5241 3.5751 0
M  V30 13 Pb -5.2583 -3.2986 2.5058 0
M  V30 14 Pb -6.3197 -2.3493 2.5491 0
M  V30 15 Pb -5.7371 -1.7156 3.6207 0
M  V30 16 Pd -6.3266 2.1766 -2.3737 0
M  V30 17 Pb -6.8732 1.6630 -1.7134 0
M  V30 18 Pb -5.7876 2.6419 -3.0635 0
M  V30 19 Pb -6.3657 1.3699 -2.9602 0
M  V30 20 Pb -6.1826 2.9588 -1.7312 0
M  V30 21 Pd -2.4426 -4.2441 -3.5778 0
M  V30 22 Pb -1.6451 -4.8287 -3.4252 0
M  V30 23 Pb -2.9306 -4.6881 -2.8252 0
M  V30 24 Pb -3.2427 -3.6782 -3.7797 0
M  V30 25 Pb -1.9086 -3.7275 -4.2439 0
M  V30 26 Pd -2.4433 5.9203 0.3184 0
M  V30 27 Pb -2.3131 5.8800 -0.6633 0
M  V30 28 Pb -2.5584 6.0389 1.3085 0
M  V30 29 Pb -1.4842 6.1906 0.3980 0
M  V30 30 Pb -3.4064 5.5965 0.1984 0
M  V30 31 Pd -1.6848 3.2018 5.0425 0
M  V30 32 Pb -0.7102 3.4251 5.0117 0
M  V30 33 Pb -1.9190 4.1502 4.8301 0
M  V30 34 Pb -2.6518 2.9829 5.1116 0
M  V30 35 Pb -1.5098 2.2188 5.1628 0
M  V30 36 Pd 3.7855 -0.1595 -3.3794 0
M  V30 37 Pb 3.0390 -0.4459 -3.9797 0
M  V30 38 Pb 4.5243 0.1308 -2.7666 0
M  V30 39 Pb 4.3449 -0.8638 -3.8295 0
M  V30 40 Pb 3.1866 0.5388 -2.9772 0
M  V30 41 Pd 7.2743 -2.2170 2.5818 0
M  V30 42 Pb 8.0461 -2.5382 2.0423 0
M  V30 43 Pb 6.3967 -1.9200 2.9498 0
M  V30 44 Pb 7.3821 -1.3183 2.1638 0
M  V30 45 Pb 7.0460 -3.1720 2.7653 0
M  V30 46 Ag 3.6465 -5.9254 -2.9628 0
M  V30 47 Fe 1.3064 -5.5628 -3.1590 0
M  V30 48 Ag -1.0438 -5.2724 -3.3543 0
M  V30 49 Ag -1.4633 -3.3052 -4.6712 0
M  V30 50 Fe 0.5023 -1.9752 -4.6383 0
M  V30 51 Ag 2.4840 -0.6867 -4.4226 0
M  V30 52 Ag -6.3397 0.7319 -3.3503 0
M  V30 53 Fe -5.1221 -1.2777 -3.6915 0
M  V30 54 Ag -3.8368 -3.2561 -3.9593 0
M  V30 55 Ag -5.3152 3.0278 -3.4782 0
M  V30 56 Fe -3.6165 4.5426 -2.8897 0
M  V30 57 Ag -2.3074 5.8024 -1.3973 0
M  V30 58 Ag -5.8544 -1.0739 3.9768 0
M  V30 59 Fe -4.7542 0.9106 4.6471 0
M  V30 60 Ag -3.3542 2.7458 5.1663 0
M  V30 61 Ag 5.4007 -6.1411 -1.1859 0
M  V30 62 Fe 6.0761 -5.2491 0.9093 0
M  V30 63 Ag 6.8286 -3.8861 2.7027 0
M  V30 64 Ag 6.9480 -4.9864 -2.3641 0
M  V30 65 Fe 8.0075 -3.9354 -0.5258 0
M  V30 66 Ag 8.4795 -2.8161 1.5058 0
M  V30 67 Ag -3.9728 -2.3757 3.9290 0
M  V30 68 Fe -2.6196 -0.5426 4.6249 0
M  V30 69 Ag -1.4731 1.4644 5.2025 0
M  V30 70 Ag -6.8709 -2.0731 2.1286 0
M  V30 71 Fe -7.2073 -0.4602 0.4216 0
M  V30 72 Ag -7.2648 1.2004 -1.2723 0
M  V30 73 Ag 5.0444 0.3645 -2.2749 0
M  V30 74 Fe 6.2756 -0.0515 -0.2858 0
M  V30 75 Ag 7.3724 -0.7228 1.7117 0
M  V30 76 Ag 2.4728 1.6012 1.9780 0
M  V30 77 Fe 4.0518 -0.0674 2.5757 0
M  V30 78 Ag 5.7013 -1.6916 3.1008 0
M  V30 79 Ag -5.0979 -3.8540 2.0251 0
M  V30 80 Fe -4.1970 -4.4789 -0.0837 0
M  V30 81 Ag -3.2663 -4.9692 -2.2149 0
M  V30 82 Ba 2.1241 3.6489 2.9417 0
M  V30 83 Ga 1.0791 3.6373 3.9807 0
M  V30 84 Ba 0.0157 3.6149 5.0008 0
M  V30 85 Ba -6.0887 3.5413 -1.2332 0
M  V30 86 Ga -5.0488 4.4222 -0.6023 0
M  V30 87 Ba -4.1439 5.3809 0.1168 0
M  V30 88 Ba 5.3724 -4.2726 -4.0889 0
M  V30 89 Ga 5.0254 -2.8342 -4.1512 0
M  V30 90 Ba 4.6939 -1.3937 -4.2411 0
M  V30 91 Ba 1.7111 4.8012 0.8335 0
M  V30 92 Ga 0.4802 5.5878 0.6248 0
M  V30 93 Ba -0.7557 6.3667 0.4167 0
M  V30 94 Ba 1.8611 2.6801 -0.4081 0
M  V30 95 Ga 2.3438 1.8338 -1.5220 0
M  V30 96 Ba 2.7013 1.0610 -2.7325 0
M  V30 97 Ba -2.6154 6.1871 2.0456 0
M  V30 98 Ga -2.3707 5.5033 3.3327 0
M  V30 99 Ba -2.1349 4.8406 4.6325 0
M  V30 END ATOM
M  V30 BEGIN BOND
M  V30 1 1 1 2
M  V30 2 1 1 3
M  V30 3 1 1 4
M  V30 4 1 1 5
M  V30 5 1 6 7
M  V30 6 1 6 8
M  V30 7 1 6 9
M  V30 8 1 6 10
M  V30 9 1 11 12
M  V30 10 1 11 13
M  V30 11 1 11 14
M  V30 12 1 11 15
M  V30 13 1 16 17
M  V30 14 1 16 18
M  V30 15 1 16 19
M  V30 16 1 16 20
M  V30 17 1 21 22
M  V30 18 1 21 23
M  V30 19 1 21 24
M  V30 20 1 21 25
M  V30 21 1 26 27
M  V30 22 1 26 28
M  V30 23 1 26 29
M  V30 24 1 26 30
M  V30 25 1 31 32
M  V30 26 1 31 33
M  V30 27 1 31 34
M  V30 28 1 31 35
M  V30 29 1 36 37
M  V30 30 1 36 38
M  V30 31 1 36 39
M  V30 32 1 36 40
M  V30 33 1 41 42
M  V30 34 1 41 43
M  V30 35 1 41 44
M  V30 36 1 41 45
M  V30 37 1 46 47
M  V30 38 1 47 48
M  V30 39 1 49 50
M  V30 40 1 50 51
M  V30 41 1 52 53
M  V30 42 1 53 54
M  V30 43 1 55 56
M  V30 44 1 56 57
M  V30 45 1 58 59
M  V30 46 1 59 60
M  V30 47 1 61 62
M  V30 48 1 62 63
M  V30 49 1 64 65
M  V30 50 1 65 66
M  V30 51 1 67 68
M  V30 52 1 68 69
M  V30 53 1 70 71
M  V30 54 1 71 72
M  V30 55 1 73 74
M  V30 56 1 74 75
M  V30 57 1 76 77
M  V30 58 1 77 78
M  V30 59 1 79 80
M  V30 60 1 80 81
M  V30 61 1 82 83
M  V30 62 1 83 84
M  V30 63 1 85 86
M  V30 64 1 86 87
M  V30 65 1 88 89
M  V30 66 1 89 90
M  V30 67 1 91 92
M  V30 68 1 92 93
M  V30 69 1 94 95
M  V30 70 1 95 96
M  V30 71 1 97 98
M  V30 72 1 98 99
M  V30 73 1 2 82
M  V30 74 1 3 76
M  V30 75 1 4 91
M  V30 76 1 5 94
M  V30 77 1 7 46
M  V30 78 1 8 64
M  V30 79 1 9 88
M  V30 80 1 10 61
M  V30 81 1 12 67
M  V30 82 1 13 79
M  V30 83 1 14 70
M  V30 84 1 15 58
M  V30 85 1 17 72
M  V30 86 1 18 55
M  V30 87 1 19 52
M  V30 88 1 20 85
M  V30 89 1 22 48
M  V30 90 1 23 81
M  V30 91 1 24 54
M  V30 92 1 25 49
M  V30 93 1 27 57
M  V30 94 1 28 97
M  V30 95 1 29 93
M  V30 96 1 30 87
M  V30 97 1 32 84
M  V30 98 1 33 99
M  V30 99 1 34 60
M  V30 100 1 35 69
M  V30 101 1 37 51
M  V30 102 1 38 73
M  V30 103 1 39 90
M  V30 104 1 40 96
M  V30 105 1 42 66
M  V30 106 1 43 78
M  V30 107 1 44 75
M  V30 108 1 45 63
M  V30 END BOND
M  V30 END CTAB
M  END

$$$$
