
     RDKit          3D

  0  0  0  0  0  0  0  0  0  0999 V3000
M  V30 BEGIN CTAB
M  V30 COUNTS 99 108 0 0 0
M  V30 BEGIN ATOM
M  V30 1 Pd -3.8965 2.0635 2.2992 0
M  V30 2 Pb -4.4624 1.5496 1.6455 0
M  V30 3 Pb -3.2339 2.6392 2.9060 0
M  V30 4 Pb -3.8423 1.2188 2.8339 0
M  V30 5 Pb -3.9959 2.8480 1.7335 0
M  V30 6 Pd 5.1774 5.1229 2.4735 0
M  V30 7 Pb 5.1689 4.2468 1.8976 0
M  V30 8 Pb 4.6125 4.7263 3.2121 0
M  V30 9 Pb 5.7849 5.6397 1.8663 0
M  V30 10 Pb 5.0001 6.0100 2.8889 0
M  V30 11 Pd 0.4637 -4.2187 -5.1366 0
M  V30 12 Pb -0.2783 -4.8476 -5.3633 0
M  V30 13 Pb 1.1383 -3.4957 -4.8263 0
M  V30 14 Pb 0.9860 -5.0435 -4.9341 0
M  V30 15 Pb -0.0908 -3.4826 -5.4811 0
M  V30 16 Pd 2.1790 -5.9666 -0.7644 0
M  V30 17 Pb 2.2610 -6.3544 -1.6756 0
M  V30 18 Pb 2.1470 -5.7464 0.1963 0
M  V30 19 Pb 2.7490 -5.1371 -0.9309 0
M  V30 20 Pb 1.5899 -6.7466 -0.5805 0
M  V30 21 Pd 3.3791 0.0643 -1.4065 0
M  V30 22 Pb 3.8872 0.6716 -0.6692 0
M  V30 23 Pb 2.9930 -0.4622 -2.1944 0
M  V30 24 Pb 3.6084 -0.8647 -1.0459 0
M  V30 25 Pb 3.2059 0.9530 -1.8616 0
M  V30 26 Pd -3.6935 -5.8803 2.6430 0
M  V30 27 Pb -2.7728 -5.8141 2.9625 0
M  V30 28 Pb -4.5954 -5.9643 2.2405 0
M  V30 29 Pb -3.8707 -4.9552 2.9861 0
M  V30 30 Pb -3.4087 -6.7292 2.2079 0
M  V30 31 Pd -5.9729 -3.3925 -3.3362 0
M  V30 32 Pb -6.0351 -2.5504 -2.7571 0
M  V30 33 Pb -6.4539 -3.9310 -2.6735 0
M  V30 34 Pb -5.4444 -2.9053 -4.0117 0
M  V30 35 Pb -5.7473 -4.2147 -3.8513 0
M  V30 36 Pd 1.5594 5.6956 -0.6023 0
M  V30 37 Pb 2.0182 4.9137 -0.9810 0
M  V30 38 Pb 1.0890 6.4862 -0.2371 0
M  V30 39 Pb 2.2590 6.3222 -0.8983 0
M  V30 40 Pb 0.7879 5.2155 -0.3276 0
M  V30 41 Pd 0.5968 6.3980 4.1069 0
M  V30 42 Pb 1.1304 5.7461 4.6460 0
M  V30 43 Pb -0.1789 5.7294 4.1127 0
M  V30 44 Pb 0.1834 7.0131 3.4576 0
M  V30 45 Pb 1.4410 6.9638 4.1200 0
M  V30 46 Ag -4.8794 1.2010 1.1013 0
M  V30 47 Fe -5.2800 -0.4698 -0.5599 0
M  V30 48 Ag -6.0612 -1.9625 -2.2707 0
M  V30 49 Ag 2.0279 -5.6689 0.9272 0
M  V30 50 Fe 0.1900 -5.8511 2.4111 0
M  V30 51 Ag -2.0516 -5.7616 3.1660 0
M  V30 52 Ag -0.5737 -3.0096 -5.7756 0
M  V30 53 Fe -2.9061 -2.6652 -5.6007 0
M  V30 54 Ag -5.0135 -2.5800 -4.5289 0
M  V30 55 Ag -0.8872 -5.2811 -5.4812 0
M  V30 56 Fe -3.1845 -5.2893 -4.8751 0
M  V30 57 Ag -5.4056 -4.7738 -4.2238 0
M  V30 58 Ag 1.0814 -7.2696 -0.4365 0
M  V30 59 Fe -1.0460 -7.4877 0.5891 0
M  V30 60 Ag -3.0513 -7.2745 1.8422 0
M  V30 61 Ag 6.0841 6.1544 1.4142 0
M  V30 62 Fe 4.8815 7.4085 -0.1702 0
M  V30 63 Ag 2.8086 6.7991 -1.0649 0
M  V30 64 Ag -3.8827 0.5307 3.1605 0
M  V30 65 Fe -3.9032 -1.8552 3.0530 0
M  V30 66 Ag -3.9296 -4.2360 3.2457 0
M  V30 67 Ag -3.9342 3.4329 1.3102 0
M  V30 68 Fe -2.0211 4.6211 0.6612 0
M  V30 69 Ag 0.1519 4.9754 -0.1070 0
M  V30 70 Ag -5.2333 -6.0260 1.8917 0
M  V30 71 Fe -6.3677 -5.3988 -0.0861 0
M  V30 72 Ag -6.7750 -4.3597 -2.1627 0
M  V30 73 Ba 5.1835 3.5371 1.5128 0
M  V30 74 Ga 4.5851 2.4550 0.5987 0
M  V30 75 Ba 4.3417 1.1485 -0.2003 0
M  V30 76 Ba 3.1868 1.6414 -2.1464 0
M  V30 77 Ga 2.7232 2.9775 -1.6833 0
M  V30 78 Ba 2.3261 4.3845 -1.4422 0
M  V30 79 Ba 3.2312 -4.5237 -0.8822 0
M  V30 80 Ga 3.4001 -3.0430 -0.9606 0
M  V30 81 Ba 3.8313 -1.5975 -0.9241 0
M  V30 82 Ba 4.7736 6.6473 3.1891 0
M  V30 83 Ga 3.4504 7.0031 3.7013 0
M  V30 84 Ba 2.0848 7.3586 4.1135 0
M  V30 85 Ba 4.2089 4.5208 3.8027 0
M  V30 86 Ga 2.9332 4.9744 4.4184 0
M  V30 87 Ba 1.6005 5.2802 4.9332 0
M  V30 88 Ba 1.3279 -5.7045 -4.8537 0
M  V30 89 Ga 1.8697 -6.3211 -3.6544 0
M  V30 90 Ba 2.3151 -6.7002 -2.3204 0
M  V30 91 Ba 0.6969 7.0313 0.0709 0
M  V30 92 Ga 0.2931 7.3058 1.4537 0
M  V30 93 Ba -0.0363 7.4552 2.8850 0
M  V30 94 Ba -2.7723 3.0612 3.4127 0
M  V30 95 Ga -1.7220 4.1620 3.6773 0
M  V30 96 Ba -0.6854 5.1371 4.2195 0
M  V30 97 Ba 1.5998 -2.8821 -4.6810 0
M  V30 98 Ga 2.1672 -1.9183 -3.6820 0
M  V30 99 Ba 2.8242 -0.8276 -2.8784 0
M  V30 END ATOM
M  V30 BEGIN BOND
M  V30 1 1 1 2
M  V30 2 1 1 3
M  V30 3 1 1 4
M  V30 4 1 1 5
M  V30 5 1 6 7
M  V30 6 1 6 8
M  V30 7 1 6 9
M  V30 8 1 6 10
M  V30 9 1 11 12
M  V30 10 1 11 13
M  V30 11 1 11 14
M  V30 12 1 11 15
M  V30 13 1 16 17
M  V30 14 1 16 18
M  V30 15 1 16 19
M  V30 16 1 16 20
M  V30 17 1 21 22
M  V30 18 1 21 23
M  V30 19 1 21 24
M  V30 20 1 21 25
M  V30 21 1 26 27
M  V30 22 1 26 28
M  V30 23 1 26 29
M  V30 24 1 26 30
M  V30 25 1 31 32
M  V30 26 1 31 33
M  V30 27 1 31 34
M  V30 28 1 31 35
M  V30 29 1 36 37
M  V30 30 1 36 38
M  V30 31 1 36 39
M  V30 32 1 36 40
M  V30 33 1 41 42
M  V30 34 1 41 43
M  V30 35 1 41 44
M  V30 36 1 41 45
M  V30 37 1 46 47
M  V30 38 1 47 48
M  V30 39 1 49 50
M  V30 40 1 50 51
M  V30 41 1 52 53
M  V30 42 1 53 54
M  V30 43 1 55 56
M  V30 44 1 56 57
M  V30 45 1 58 59
M  V30 46 1 59 60
M  V30 47 1 61 62
M  V30 48 1 62 63
M  V30 49 1 64 65
M  V30 50 1 65 66
M  V30 51 1 67 68
M  V30 52 1 68 69
M  V30 53 1 70 71
M  V30 54 1 71 72
M  V30 55 1 73 74
M  V30 56 1 74 75
M  V30 57 1 76 77
M  V30 58 1 77 78
M  V30 59 1 79 80
M  V30 60 1 80 81
M  V30 61 1 82 83
M  V30 62 1 83 84
M  V30 63 1 85 86
M  V30 64 1 86 87
M  V30 65 1 88 89
M  V30 66 1 89 90
M  V30 67 1 91 92
M  V30 68 1 92 93
M  V30 69 1 94 95
M  V30 70 1 95 96
M  V30 71 1 97 98
M  V30 72 1 98 99
M  V30 73 1 2 46
M  V30 74 1 3 94
M  V30 75 1 4 64
M  V30 76 1 5 67
M  V30 77 1 7 73
M  V30 78 1 8 85
M  V30 79 1 9 61
M  V30 80 1 10 82
M  V30 81 1 12 55
M  V30 82 1 13 97
M  V30 83 1 14 88
M  V30 84 1 15 52
M  V30 85 1 17 90
M  V30 86 1 18 49
M  V30 87 1 19 79
M  V30 88 1 20 58
M  V30 89 1 22 75
M  V30 90 1 23 99
M  V30 91 1 24 81
M  V30 92 1 25 76
M  V30 93 1 27 51
M  V30 94 1 28 70
M  V30 95 1 29 66
M  V30 96 1 30 60
M  V30 97 1 32 48
M  V30 98 1 33 72
M  V30 99 1 34 54
M  V30 100 1 35 57
M  V30 101 1 37 78
M  V30 102 1 38 91
M  V30 103 1 39 63
M  V30 104 1 40 69
M  V30 105 1 42 87
M  V30 106 1 43 96
M  V30 107 1 44 93
M  V30 108 1 45 84
M  V30 END BOND
M  V30 END CTAB
M  END

$$$$
