
     RDKit          3D

  0  0  0  0  0  0  0  0  0  0999 V3000
M  V30 BEGIN CTAB
M  V30 COUNTS 99 108 0 0 0
M  V30 BEGIN ATOM
M  V30 1 Pd 0.9192 5.3938 -0.6724 0
M  V30 2 Pb 0.4770 5.4352 -1.5708 0
M  V30 3 Pb 0.1408 5.8968 -0.2849 0
M  V30 4 Pb 1.7553 5.0124 -1.0671 0
M  V30 5 Pb 1.3664 5.2882 0.2152 0
M  V30 6 Pd -5.6494 -0.3294 3.8839 0
M  V30 7 Pb -5.2835 -0.9504 3.1945 0
M  V30 8 Pb -6.0243 0.2676 3.1708 0
M  V30 9 Pb -5.1166 -0.7808 4.5975 0
M  V30 10 Pb -5.9331 0.3569 4.5447 0
M  V30 11 Pd -2.3550 -3.9572 -3.3888 0
M  V30 12 Pb -3.0908 -3.4048 -3.0069 0
M  V30 13 Pb -2.4970 -4.7074 -2.7414 0
M  V30 14 Pb -1.5897 -4.4835 -3.7516 0
M  V30 15 Pb -2.1666 -3.2079 -4.0429 0
M  V30 16 Pd 4.7575 -5.4395 -1.7074 0
M  V30 17 Pb 4.0494 -5.7065 -2.3573 0
M  V30 18 Pb 5.4536 -5.1294 -1.0671 0
M  V30 19 Pb 4.3142 -5.9875 -0.9960 0
M  V30 20 Pb 5.1732 -4.8482 -2.4183 0
M  V30 21 Pd 0.0633 -5.0386 1.1054 0
M  V30 22 Pb -0.7386 -4.4437 1.1431 0
M  V30 23 Pb -0.5153 -5.6363 0.5505 0
M  V30 24 Pb 0.8418 -5.6687 1.0499 0
M  V30 25 Pb 0.6154 -4.4221 1.6715 0
M  V30 26 Pd 5.9629 0.0632 -3.3587 0
M  V30 27 Pb 6.5492 -0.1393 -2.5801 0
M  V30 28 Pb 5.3460 0.2744 -4.1154 0
M  V30 29 Pb 5.8431 1.0091 -3.0659 0
M  V30 30 Pb 6.0255 -0.9111 -3.6280 0
M  V30 31 Pd -1.2119 1.8601 -4.5474 0
M  V30 32 Pb -1.0883 2.8321 -4.3261 0
M  V30 33 Pb -0.3305 1.8389 -5.0177 0
M  V30 34 Pb -1.3487 0.8932 -4.8193 0
M  V30 35 Pb -2.0752 1.8183 -4.0525 0
M  V30 36 Pd 1.0453 1.2790 5.5938 0
M  V30 37 Pb 1.4419 0.4585 5.1785 0
M  V30 38 Pb 0.6477 2.1280 5.9436 0
M  V30 39 Pb 0.3508 0.6988 6.0220 0
M  V30 40 Pb 1.6664 1.8828 5.0985 0
M  V30 41 Pd -3.5962 6.1010 3.1175 0
M  V30 42 Pb -4.2715 5.7220 2.4823 0
M  V30 43 Pb -3.0431 6.4797 2.3724 0
M  V30 44 Pb -2.8919 6.2710 3.8030 0
M  V30 45 Pb -4.1544 5.7245 3.8509 0
M  V30 46 Ag -4.9691 -1.3731 2.6640 0
M  V30 47 Fe -3.1564 -2.7208 1.9343 0
M  V30 48 Ag -1.3919 -4.0776 1.1099 0
M  V30 49 Ag 1.0471 -3.9770 2.0982 0
M  V30 50 Fe 1.3739 -2.0656 3.4738 0
M  V30 51 Ag 1.7189 -0.1590 4.8516 0
M  V30 52 Ag 5.9649 -4.7511 -0.6856 0
M  V30 53 Fe 6.7685 -2.5539 -0.9838 0
M  V30 54 Ag 6.9118 -0.4312 -2.0020 0
M  V30 55 Ag -6.0609 0.9599 4.9590 0
M  V30 56 Fe -5.4449 3.2425 4.8816 0
M  V30 57 Ag -4.5725 5.3792 4.3614 0
M  V30 58 Ag -6.2031 0.8172 2.6876 0
M  V30 59 Fe -5.6226 3.0776 2.2247 0
M  V30 60 Ag -4.7659 5.2942 2.1099 0
M  V30 61 Ag -3.5520 -2.8643 -2.7873 0
M  V30 62 Fe -3.4849 -0.5154 -3.0343 0
M  V30 63 Ag -2.6864 1.6114 -3.6834 0
M  V30 64 Ag -0.9951 -4.8805 -3.9680 0
M  V30 65 Fe 1.2596 -5.4304 -3.4803 0
M  V30 66 Ag 3.5025 -5.8617 -2.8423 0
M  V30 67 Ag -4.6243 -0.9962 5.1190 0
M  V30 68 Fe -2.4137 -0.4883 5.8230 0
M  V30 69 Ag -0.1984 0.2467 6.2631 0
M  V30 70 Ag 2.4311 4.7970 -1.3126 0
M  V30 71 Fe 4.0475 3.2411 -2.0890 0
M  V30 72 Ag 5.6889 1.7142 -2.8710 0
M  V30 73 Ag 1.7497 5.1322 0.8407 0
M  V30 74 Fe 1.9634 3.8042 2.7971 0
M  V30 75 Ag 2.0371 2.4082 4.7159 0
M  V30 76 Ag 0.4057 2.8216 6.1003 0
M  V30 77 Fe -0.9476 4.6242 5.3514 0
M  V30 78 Ag -2.3992 6.2237 4.3643 0
M  V30 79 Ag 4.8548 0.4892 -4.6385 0
M  V30 80 Fe 2.6125 1.1357 -5.0739 0
M  V30 81 Ag 0.3376 1.7571 -5.3469 0
M  V30 82 Ba 0.1294 5.4642 -2.2373 0
M  V30 83 Ga -0.4257 4.4901 -3.2025 0
M  V30 84 Ba -1.0014 3.5725 -4.2100 0
M  V30 85 Ba 3.9653 -6.3896 -0.4656 0
M  V30 86 Ga 2.6917 -6.2598 0.2734 0
M  V30 87 Ba 1.4223 -6.1477 1.0227 0
M  V30 88 Ba -2.0202 -2.6778 -4.5700 0
M  V30 89 Ga -1.7396 -1.2246 -4.7398 0
M  V30 90 Ba -1.4470 0.1908 -5.1007 0
M  V30 91 Ba 5.4844 -4.4282 -2.9745 0
M  V30 92 Ga 5.7579 -3.0110 -3.3488 0
M  V30 93 Ba 6.0875 -1.6415 -3.8382 0
M  V30 94 Ba -0.4125 6.3577 -0.0593 0
M  V30 95 Ga -1.5214 6.5000 0.9089 0
M  V30 96 Ba -2.6598 6.7936 1.8066 0
M  V30 97 Ba -2.5292 -5.3024 -2.2836 0
M  V30 98 Ga -1.7860 -5.6872 -1.0670 0
M  V30 99 Ba -1.0166 -6.0231 0.1477 0
M  V30 END ATOM
M  V30 BEGIN BOND
M  V30 1 1 1 2
M  V30 2 1 1 3
M  V30 3 1 1 4
M  V30 4 1 1 5
M  V30 5 1 6 7
M  V30 6 1 6 8
M  V30 7 1 6 9
M  V30 8 1 6 10
M  V30 9 1 11 12
M  V30 10 1 11 13
M  V30 11 1 11 14
M  V30 12 1 11 15
M  V30 13 1 16 17
M  V30 14 1 16 18
M  V30 15 1 16 19
M  V30 16 1 16 20
M  V30 17 1 21 22
M  V30 18 1 21 23
M  V30 19 1 21 24
M  V30 20 1 21 25
M  V30 21 1 26 27
M  V30 22 1 26 28
M  V30 23 1 26 29
M  V30 24 1 26 30
M  V30 25 1 31 32
M  V30 26 1 31 33
M  V30 27 1 31 34
M  V30 28 1 31 35
M  V30 29 1 36 37
M  V30 30 1 36 38
M  V30 31 1 36 39
M  V30 32 1 36 40
M  V30 33 1 41 42
M  V30 34 1 41 43
M  V30 35 1 41 44
M  V30 36 1 41 45
M  V30 37 1 46 47
M  V30 38 1 47 48
M  V30 39 1 49 50
M  V30 40 1 50 51
M  V30 41 1 52 53
M  V30 42 1 53 54
M  V30 43 1 55 56
M  V30 44 1 56 57
M  V30 45 1 58 59
M  V30 46 1 59 60
M  V30 47 1 61 62
M  V30 48 1 62 63
M  V30 49 1 64 65
M  V30 50 1 65 66
M  V30 51 1 67 68
M  V30 52 1 68 69
M  V30 53 1 70 71
M  V30 54 1 71 72
M  V30 55 1 73 74
M  V30 56 1 74 75
M  V30 57 1 76 77
M  V30 58 1 77 78
M  V30 59 1 79 80
M  V30 60 1 80 81
M  V30 61 1 82 83
M  V30 62 1 83 84
M  V30 63 1 85 86
M  V30 64 1 86 87
M  V30 65 1 88 89
M  V30 66 1 89 90
M  V30 67 1 91 92
M  V30 68 1 92 93
M  V30 69 1 94 95
M  V30 70 1 95 96
M  V30 71 1 97 98
M  V30 72 1 98 99
M  V30 73 1 2 82
M  V30 74 1 3 94
M  V30 75 1 4 70
M  V30 76 1 5 73
M  V30 77 1 7 46
M  V30 78 1 8 58
M  V30 79 1 9 67
M  V30 80 1 10 55
M  V30 81 1 12 61
M  V30 82 1 13 97
M  V30 83 1 14 64
M  V30 84 1 15 88
M  V30 85 1 17 66
M  V30 86 1 18 52
M  V30 87 1 19 85
M  V30 88 1 20 91
M  V30 89 1 22 48
M  V30 90 1 23 99
M  V30 91 1 24 87
M  V30 92 1 25 49
M  V30 93 1 27 54
M  V30 94 1 28 79
M  V30 95 1 29 72
M  V30 96 1 30 93
M  V30 97 1 32 84
M  V30 98 1 33 81
M  V30 99 1 34 90
M  V30 100 1 35 63
M  V30 101 1 37 51
M  V30 102 1 38 76
M  V30 103 1 39 69
M  V30 104 1 40 75
M  V30 105 1 42 60
M  V30 106 1 43 96
M  V30 107 1 44 78
M  V30 108 1 45 57
M  V30 END BOND
M  V30 END CTAB
M  END

$$$$
