
     RDKit          3D

  0  0  0  0  0  0  0  0  0  0999 V3000
M  V30 BEGIN CTAB
M  V30 COUNTS 99 108 0 0 0
M  V30 BEGIN ATOM
M  V30 1 Pd -5.7919 3.8871 -2.6769 0
M  V30 2 Pb -6.4022 3.1964 -3.0562 0
M  V30 3 Pb -5.2906 3.8677 -3.5413 0
M  V30 4 Pb -5.1426 4.5596 -2.2794 0
M  V30 5 Pb -6.2690 3.8488 -1.8058 0
M  V30 6 Pd -1.8097 5.2051 1.5819 0
M  V30 7 Pb -1.2960 4.8732 2.3957 0
M  V30 8 Pb -2.3232 5.4956 0.7547 0
M  V30 9 Pb -2.6649 4.9157 1.9976 0
M  V30 10 Pb -0.9657 5.5371 1.1789 0
M  V30 11 Pd -2.5724 -5.4426 1.4797 0
M  V30 12 Pb -2.4684 -5.3823 2.4695 0
M  V30 13 Pb -1.5833 -5.5980 1.4010 0
M  V30 14 Pb -3.5488 -5.3516 1.6145 0
M  V30 15 Pb -2.7073 -5.4361 0.4629 0
M  V30 16 Pd 3.1472 2.9753 4.4162 0
M  V30 17 Pb 2.8946 2.2689 5.0798 0
M  V30 18 Pb 4.1118 2.7207 4.4913 0
M  V30 19 Pb 2.1745 3.2723 4.3612 0
M  V30 20 Pb 3.3945 3.6496 3.7313 0
M  V30 21 Pd -1.7926 0.7105 -5.1335 0
M  V30 22 Pb -2.3924 0.0037 -5.5144 0
M  V30 23 Pb -1.1412 1.3554 -4.7256 0
M  V30 24 Pb -2.4682 1.4426 -5.2565 0
M  V30 25 Pb -1.0618 0.0346 -5.1190 0
M  V30 26 Pd 1.5195 -4.2014 4.6794 0
M  V30 27 Pb 1.5500 -3.4927 5.3831 0
M  V30 28 Pb 1.4703 -4.8048 3.8791 0
M  V30 29 Pb 2.5105 -4.0948 4.5992 0
M  V30 30 Pb 0.5458 -4.3510 4.8340 0
M  V30 31 Pd 7.4570 -0.2474 2.1901 0
M  V30 32 Pb 7.4749 0.4164 1.4191 0
M  V30 33 Pb 7.8399 -0.9405 1.5918 0
M  V30 34 Pb 7.2973 -0.9585 2.8699 0
M  V30 35 Pb 7.1604 0.4528 2.8422 0
M  V30 36 Pd 5.2797 0.4427 -3.1281 0
M  V30 37 Pb 5.9675 -0.2654 -3.2343 0
M  V30 38 Pb 5.8687 0.9081 -2.4394 0
M  V30 39 Pb 4.6603 -0.0876 -3.6992 0
M  V30 40 Pb 4.5516 1.1287 -3.0547 0
M  V30 41 Pd -5.4150 -3.2763 -3.4344 0
M  V30 42 Pb -4.8382 -3.0162 -4.2128 0
M  V30 43 Pb -6.0802 -2.6062 -3.7520 0
M  V30 44 Pb -4.7151 -3.9078 -3.0319 0
M  V30 45 Pb -6.0450 -3.5057 -2.7063 0
M  V30 46 Ag -0.5996 1.7708 -4.4062 0
M  V30 47 Fe 1.6710 1.7835 -3.6952 0
M  V30 48 Ag 3.9554 1.5892 -3.0587 0
M  V30 49 Ag 8.0864 -1.3927 1.0618 0
M  V30 50 Fe 7.6125 -1.5142 -1.2371 0
M  V30 51 Ag 6.4788 -0.7934 -3.1652 0
M  V30 52 Ag -0.4620 -0.4066 -5.1557 0
M  V30 53 Fe 1.8488 -0.5599 -4.6552 0
M  V30 54 Ag 4.1386 -0.4877 -4.0506 0
M  V30 55 Ag -0.2818 5.7370 0.9813 0
M  V30 56 Fe 1.8551 5.1918 1.8076 0
M  V30 57 Ag 3.4528 4.1404 3.1816 0
M  V30 58 Ag 3.2538 -3.9941 4.6205 0
M  V30 59 Fe 5.2071 -2.7956 4.0016 0
M  V30 60 Ag 7.0896 -1.5274 3.3074 0
M  V30 61 Ag -4.2803 -5.2657 1.6194 0
M  V30 62 Fe -5.8073 -4.5167 -0.0006 0
M  V30 63 Ag -6.4332 -3.6890 -2.1077 0
M  V30 64 Ag -6.4770 3.8264 -1.0958 0
M  V30 65 Fe -5.2502 4.1910 0.8824 0
M  V30 66 Ag -3.3552 4.7180 2.1798 0
M  V30 67 Ag 2.6959 1.7175 5.5501 0
M  V30 68 Fe 2.1367 -0.5777 5.8010 0
M  V30 69 Ag 1.6097 -2.8938 5.8294 0
M  V30 70 Ag -6.8015 2.6377 -3.3487 0
M  V30 71 Fe -6.8125 0.2963 -3.7152 0
M  V30 72 Ag -6.5427 -2.0484 -3.9289 0
M  V30 73 Ba -0.8451 -5.7551 1.3958 0
M  V30 74 Ga 0.2854 -5.4821 2.3134 0
M  V30 75 Ba 1.4061 -5.2005 3.2404 0
M  V30 76 Ba -0.9672 4.6139 3.0386 0
M  V30 77 Ga 0.2932 4.0611 3.6229 0
M  V30 78 Ba 1.4418 3.4984 4.3975 0
M  V30 79 Ba -2.7641 -0.5864 -5.7980 0
M  V30 80 Ga -3.6278 -1.6741 -5.2882 0
M  V30 81 Ba -4.4930 -2.7886 -4.8430 0
M  V30 82 Ba 4.8443 2.5753 4.5645 0
M  V30 83 Ga 5.8846 1.7435 3.9275 0
M  V30 84 Ba 7.0083 0.9618 3.3743 0
M  V30 85 Ba -2.7863 -5.4534 -0.3080 0
M  V30 86 Ga -3.5367 -4.8646 -1.4713 0
M  V30 87 Ba -4.1823 -4.3915 -2.7451 0
M  V30 88 Ba -4.6663 5.0908 -2.0023 0
M  V30 89 Ga -3.6880 5.3423 -0.9021 0
M  V30 90 Ba -2.6876 5.7474 0.1303 0
M  V30 91 Ba -2.4035 -5.2949 3.2087 0
M  V30 92 Ga -1.2978 -4.9011 4.0953 0
M  V30 93 Ba -0.1745 -4.5055 4.9587 0
M  V30 94 Ba -4.9368 3.8109 -4.1998 0
M  V30 95 Ga -3.9225 2.9014 -4.7723 0
M  V30 96 Ba -2.9145 2.0303 -5.4112 0
M  V30 97 Ba 7.4665 0.9046 0.8263 0
M  V30 98 Ga 6.8665 1.0280 -0.5410 0
M  V30 99 Ba 6.3183 1.2500 -1.9177 0
M  V30 END ATOM
M  V30 BEGIN BOND
M  V30 1 1 1 2
M  V30 2 1 1 3
M  V30 3 1 1 4
M  V30 4 1 1 5
M  V30 5 1 6 7
M  V30 6 1 6 8
M  V30 7 1 6 9
M  V30 8 1 6 10
M  V30 9 1 11 12
M  V30 10 1 11 13
M  V30 11 1 11 14
M  V30 12 1 11 15
M  V30 13 1 16 17
M  V30 14 1 16 18
M  V30 15 1 16 19
M  V30 16 1 16 20
M  V30 17 1 21 22
M  V30 18 1 21 23
M  V30 19 1 21 24
M  V30 20 1 21 25
M  V30 21 1 26 27
M  V30 22 1 26 28
M  V30 23 1 26 29
M  V30 24 1 26 30
M  V30 25 1 31 32
M  V30 26 1 31 33
M  V30 27 1 31 34
M  V30 28 1 31 35
M  V30 29 1 36 37
M  V30 30 1 36 38
M  V30 31 1 36 39
M  V30 32 1 36 40
M  V30 33 1 41 42
M  V30 34 1 41 43
M  V30 35 1 41 44
M  V30 36 1 41 45
M  V30 37 1 46 47
M  V30 38 1 47 48
M  V30 39 1 49 50
M  V30 40 1 50 51
M  V30 41 1 52 53
M  V30 42 1 53 54
M  V30 43 1 55 56
M  V30 44 1 56 57
M  V30 45 1 58 59
M  V30 46 1 59 60
M  V30 47 1 61 62
M  V30 48 1 62 63
M  V30 49 1 64 65
M  V30 50 1 65 66
M  V30 51 1 67 68
M  V30 52 1 68 69
M  V30 53 1 70 71
M  V30 54 1 71 72
M  V30 55 1 73 74
M  V30 56 1 74 75
M  V30 57 1 76 77
M  V30 58 1 77 78
M  V30 59 1 79 80
M  V30 60 1 80 81
M  V30 61 1 82 83
M  V30 62 1 83 84
M  V30 63 1 85 86
M  V30 64 1 86 87
M  V30 65 1 88 89
M  V30 66 1 89 90
M  V30 67 1 91 92
M  V30 68 1 92 93
M  V30 69 1 94 95
M  V30 70 1 95 96
M  V30 71 1 97 98
M  V30 72 1 98 99
M  V30 73 1 2 70
M  V30 74 1 3 94
M  V30 75 1 4 88
M  V30 76 1 5 64
M  V30 77 1 7 76
M  V30 78 1 8 90
M  V30 79 1 9 66
M  V30 80 1 10 55
M  V30 81 1 12 91
M  V30 82 1 13 73
M  V30 83 1 14 61
M  V30 84 1 15 85
M  V30 85 1 17 67
M  V30 86 1 18 82
M  V30 87 1 19 78
M  V30 88 1 20 57
M  V30 89 1 22 79
M  V30 90 1 23 46
M  V30 91 1 24 96
M  V30 92 1 25 52
M  V30 93 1 27 69
M  V30 94 1 28 75
M  V30 95 1 29 58
M  V30 96 1 30 93
M  V30 97 1 32 97
M  V30 98 1 33 49
M  V30 99 1 34 60
M  V30 100 1 35 84
M  V30 101 1 37 51
M  V30 102 1 38 99
M  V30 103 1 39 54
M  V30 104 1 40 48
M  V30 105 1 42 81
M  V30 106 1 43 72
M  V30 107 1 44 87
M  V30 108 1 45 63
M  V30 END BOND
M  V30 END CTAB
M  END

$$$$
