
     RDKit          3D

  0  0  0  0  0  0  0  0  0  0999 V3000
M  V30 BEGIN CTAB
M  V30 COUNTS 99 108 0 0 0
M  V30 BEGIN ATOM
M  V30 1 Pd 1.8220 4.0457 1.2383 0
M  V30 2 Pb 1.9336 3.9913 0.2450 0
M  V30 3 Pb 2.8091 4.2107 1.3246 0
M  V30 4 Pb 0.8297 3.9820 1.1338 0
M  V30 5 Pb 1.6731 4.0991 2.2284 0
M  V30 6 Pd -5.5894 1.1499 1.7121 0
M  V30 7 Pb -6.2970 0.4566 1.8346 0
M  V30 8 Pb -5.0114 0.6306 2.3433 0
M  V30 9 Pb -4.8704 1.8266 1.5569 0
M  V30 10 Pb -6.1199 1.5773 0.9814 0
M  V30 11 Pd -4.6292 -3.2914 0.5083 0
M  V30 12 Pb -3.7230 -3.4144 0.1029 0
M  V30 13 Pb -4.2283 -2.9585 1.3632 0
M  V30 14 Pb -5.0503 -3.4900 -0.3756 0
M  V30 15 Pb -5.5315 -3.1063 0.8911 0
M  V30 16 Pd -0.2684 1.0759 -5.6791 0
M  V30 17 Pb -0.8203 0.4661 -6.2464 0
M  V30 18 Pb 0.3417 0.3146 -5.4584 0
M  V30 19 Pb -0.9214 1.8096 -5.8779 0
M  V30 20 Pb 0.2870 1.6915 -5.1177 0
M  V30 21 Pd 0.6674 -3.3126 2.0967 0
M  V30 22 Pb -0.0138 -2.6954 2.4993 0
M  V30 23 Pb 1.3700 -3.8984 1.6873 0
M  V30 24 Pb 0.1569 -3.3530 1.2383 0
M  V30 25 Pb 1.1540 -3.3076 2.9689 0
M  V30 26 Pd -5.2715 0.6060 -5.5772 0
M  V30 27 Pb -4.8053 1.4540 -5.8329 0
M  V30 28 Pb -4.6795 0.1146 -6.2125 0
M  V30 29 Pb -5.6475 -0.2647 -5.2614 0
M  V30 30 Pb -5.8220 1.0921 -4.8976 0
M  V30 31 Pd 6.8987 1.5910 1.4233 0
M  V30 32 Pb 6.8939 1.4740 0.4304 0
M  V30 33 Pb 6.8468 1.6719 2.4145 0
M  V30 34 Pb 7.1864 0.6393 1.5170 0
M  V30 35 Pb 6.5373 2.5211 1.3515 0
M  V30 36 Pd 1.3410 0.5594 5.4597 0
M  V30 37 Pb 2.2485 0.8224 5.7733 0
M  V30 38 Pb 1.5900 -0.4013 5.5657 0
M  V30 39 Pb 1.1467 1.5304 5.3104 0
M  V30 40 Pb 0.4672 0.2695 5.0658 0
M  V30 41 Pd 5.0025 -2.4538 -1.1027 0
M  V30 42 Pb 4.3687 -2.4621 -1.8762 0
M  V30 43 Pb 5.6668 -2.4437 -0.3558 0
M  V30 44 Pb 5.4409 -1.6344 -1.4761 0
M  V30 45 Pb 4.5546 -3.2578 -0.7047 0
M  V30 46 Ag 0.7704 -0.2763 -5.2850 0
M  V30 47 Fe 2.3448 -1.3567 -3.8722 0
M  V30 48 Ag 3.9183 -2.4595 -2.4761 0
M  V30 49 Ag -6.4599 1.8420 0.3685 0
M  V30 50 Fe -6.4274 1.7196 -2.0028 0
M  V30 51 Ag -6.2033 1.4357 -4.3500 0
M  V30 52 Ag 6.7170 1.7091 3.1473 0
M  V30 53 Fe 4.9612 1.4117 4.7077 0
M  V30 54 Ag 2.9560 1.0155 5.9028 0
M  V30 55 Ag 2.0097 3.9544 -0.5012 0
M  V30 56 Fe 1.3548 3.0466 -2.5974 0
M  V30 57 Ag 0.7133 2.1501 -4.7025 0
M  V30 58 Ag 0.0831 4.0037 1.0670 0
M  V30 59 Fe -2.1089 3.1109 1.2590 0
M  V30 60 Ag -4.3520 2.3439 1.3978 0
M  V30 61 Ag -5.3690 -3.5371 -1.0517 0
M  V30 62 Fe -5.6930 -2.3330 -3.0720 0
M  V30 63 Ag -5.8612 -0.9238 -4.9752 0
M  V30 64 Ba 6.8652 1.3330 -0.3056 0
M  V30 65 Ga 6.3282 0.1780 -1.0515 0
M  V30 66 Ba 5.7712 -1.0089 -1.7297 0
M  V30 67 Ba -1.2596 0.0293 -6.6675 0
M  V30 68 Ga -2.7216 -0.1414 -6.7025 0
M  V30 69 Ba -4.1900 -0.2370 -6.6549 0
M  V30 70 Ba 3.5387 4.4027 1.3431 0
M  V30 71 Ga 4.8781 3.7763 1.3413 0
M  V30 72 Ba 6.2452 3.2126 1.3419 0
M  V30 73 Ba -3.0523 -3.4768 -0.2274 0
M  V30 74 Ga -1.6403 -3.4446 0.1977 0
M  V30 75 Ba -0.2198 -3.4164 0.5934 0
M  V30 76 Ba 1.4912 4.1451 2.9576 0
M  V30 77 Ga 1.2832 3.1989 4.0744 0
M  V30 78 Ba 1.0701 2.2709 5.2053 0
M  V30 79 Ba -1.4507 2.3225 -6.0283 0
M  V30 80 Ga -2.9259 2.2384 -6.0296 0
M  V30 81 Ba -4.3921 2.0576 -6.0030 0
M  V30 82 Ba -4.5855 0.1624 2.7481 0
M  V30 83 Ga -4.2324 -1.2390 2.4405 0
M  V30 84 Ba -3.9765 -2.6213 1.9859 0
M  V30 85 Ba 1.8946 -4.3303 1.3646 0
M  V30 86 Ga 3.0583 -4.0885 0.4854 0
M  V30 87 Ba 4.2242 -3.8585 -0.3941 0
M  V30 88 Ba -6.7805 -0.1092 1.9073 0
M  V30 89 Ga -6.5736 -1.5257 1.5712 0
M  V30 90 Ba -6.1860 -2.8883 1.1777 0
M  V30 91 Ba 7.3495 -0.0887 1.5802 0
M  V30 92 Ga 6.7929 -1.2730 0.9026 0
M  V30 93 Ba 6.1873 -2.4072 0.1824 0
M  V30 94 Ba 1.4846 -3.2936 3.6405 0
M  V30 95 Ga 1.6570 -2.2298 4.6439 0
M  V30 96 Ba 1.7950 -1.1199 5.6018 0
M  V30 97 Ba -0.5024 -2.2175 2.8166 0
M  V30 98 Ga -0.3591 -1.1012 3.7761 0
M  V30 99 Ba -0.1545 0.0042 4.7370 0
M  V30 END ATOM
M  V30 BEGIN BOND
M  V30 1 1 1 2
M  V30 2 1 1 3
M  V30 3 1 1 4
M  V30 4 1 1 5
M  V30 5 1 6 7
M  V30 6 1 6 8
M  V30 7 1 6 9
M  V30 8 1 6 10
M  V30 9 1 11 12
M  V30 10 1 11 13
M  V30 11 1 11 14
M  V30 12 1 11 15
M  V30 13 1 16 17
M  V30 14 1 16 18
M  V30 15 1 16 19
M  V30 16 1 16 20
M  V30 17 1 21 22
M  V30 18 1 21 23
M  V30 19 1 21 24
M  V30 20 1 21 25
M  V30 21 1 26 27
M  V30 22 1 26 28
M  V30 23 1 26 29
M  V30 24 1 26 30
M  V30 25 1 31 32
M  V30 26 1 31 33
M  V30 27 1 31 34
M  V30 28 1 31 35
M  V30 29 1 36 37
M  V30 30 1 36 38
M  V30 31 1 36 39
M  V30 32 1 36 40
M  V30 33 1 41 42
M  V30 34 1 41 43
M  V30 35 1 41 44
M  V30 36 1 41 45
M  V30 37 1 46 47
M  V30 38 1 47 48
M  V30 39 1 49 50
M  V30 40 1 50 51
M  V30 41 1 52 53
M  V30 42 1 53 54
M  V30 43 1 55 56
M  V30 44 1 56 57
M  V30 45 1 58 59
M  V30 46 1 59 60
M  V30 47 1 61 62
M  V30 48 1 62 63
M  V30 49 1 64 65
M  V30 50 1 65 66
M  V30 51 1 67 68
M  V30 52 1 68 69
M  V30 53 1 70 71
M  V30 54 1 71 72
M  V30 55 1 73 74
M  V30 56 1 74 75
M  V30 57 1 76 77
M  V30 58 1 77 78
M  V30 59 1 79 80
M  V30 60 1 80 81
M  V30 61 1 82 83
M  V30 62 1 83 84
M  V30 63 1 85 86
M  V30 64 1 86 87
M  V30 65 1 88 89
M  V30 66 1 89 90
M  V30 67 1 91 92
M  V30 68 1 92 93
M  V30 69 1 94 95
M  V30 70 1 95 96
M  V30 71 1 97 98
M  V30 72 1 98 99
M  V30 73 1 2 55
M  V30 74 1 3 70
M  V30 75 1 4 58
M  V30 76 1 5 76
M  V30 77 1 7 88
M  V30 78 1 8 82
M  V30 79 1 9 60
M  V30 80 1 10 49
M  V30 81 1 12 73
M  V30 82 1 13 84
M  V30 83 1 14 61
M  V30 84 1 15 90
M  V30 85 1 17 67
M  V30 86 1 18 46
M  V30 87 1 19 79
M  V30 88 1 20 57
M  V30 89 1 22 97
M  V30 90 1 23 85
M  V30 91 1 24 75
M  V30 92 1 25 94
M  V30 93 1 27 81
M  V30 94 1 28 69
M  V30 95 1 29 63
M  V30 96 1 30 51
M  V30 97 1 32 64
M  V30 98 1 33 52
M  V30 99 1 34 91
M  V30 100 1 35 72
M  V30 101 1 37 54
M  V30 102 1 38 96
M  V30 103 1 39 78
M  V30 104 1 40 99
M  V30 105 1 42 48
M  V30 106 1 43 93
M  V30 107 1 44 66
M  V30 108 1 45 87
M  V30 END BOND
M  V30 END CTAB
M  END

$$$$
