
     RDKit          3D

  0  0  0  0  0  0  0  0  0  0999 V3000
M  V30 BEGIN CTAB
M  V30 COUNTS 99 108 0 0 0
M  V30 BEGIN ATOM
M  V30 1 Pd -3.3928 9.5713 3.1889 0
M  V30 2 Pb -2.7635 9.8495 3.9101 0
M  V30 3 Pb -4.0690 9.2603 3.8590 0
M  V30 4 Pb -2.6340 9.5987 2.5212 0
M  V30 5 Pb -3.9992 9.2211 2.4825 0
M  V30 6 Pd 2.0668 -8.0747 -5.1900 0
M  V30 7 Pb 2.4090 -7.5175 -5.9425 0
M  V30 8 Pb 2.9939 -8.0261 -4.8120 0
M  V30 9 Pb 1.6737 -8.4871 -4.3453 0
M  V30 10 Pb 1.1691 -8.1013 -5.6136 0
M  V30 11 Pd -1.8099 0.8629 -0.5053 0
M  V30 12 Pb -0.9423 0.5818 -0.9316 0
M  V30 13 Pb -2.0956 -0.0893 -0.3904 0
M  V30 14 Pb -1.5738 1.8318 -0.6245 0
M  V30 15 Pb -2.7480 1.0779 -0.2253 0
M  V30 16 Pd -1.7135 -6.9165 -0.9123 0
M  V30 17 Pb -2.2173 -6.9933 -1.7643 0
M  V30 18 Pb -1.2806 -6.8420 -0.0142 0
M  V30 19 Pb -2.2747 -6.1366 -0.6455 0
M  V30 20 Pb -1.0633 -7.6282 -1.2454 0
M  V30 21 Pd 0.2520 5.7363 2.0222 0
M  V30 22 Pb -0.1253 5.2862 1.2062 0
M  V30 23 Pb 0.0576 6.6495 1.6246 0
M  V30 24 Pb 0.3128 4.8835 2.5378 0
M  V30 25 Pb 0.6488 6.1950 2.8132 0
M  V30 26 Pd -0.5527 -1.7548 4.5040 0
M  V30 27 Pb 0.4020 -1.7540 4.2283 0
M  V30 28 Pb -1.5189 -1.6727 4.7507 0
M  V30 29 Pb -0.4361 -0.7792 4.6706 0
M  V30 30 Pb -0.6053 -2.7328 4.2947 0
M  V30 31 Pd 4.1778 0.3806 -1.1869 0
M  V30 32 Pb 3.2351 0.2272 -1.4980 0
M  V30 33 Pb 4.5012 0.4634 -2.1467 0
M  V30 34 Pb 5.1178 0.4912 -0.8791 0
M  V30 35 Pb 3.9377 0.1389 -0.2511 0
M  V30 36 Pd -5.9370 3.1016 2.9854 0
M  V30 37 Pb -6.0877 3.8584 2.3562 0
M  V30 38 Pb -5.8011 2.4972 2.2040 0
M  V30 39 Pb -5.7583 2.3310 3.6005 0
M  V30 40 Pb -6.0299 3.7757 3.7243 0
M  V30 41 Pd 6.9058 -2.8450 -4.8905 0
M  V30 42 Pb 6.5644 -1.8894 -4.8787 0
M  V30 43 Pb 6.2345 -3.1238 -5.5750 0
M  V30 44 Pb 7.6076 -2.5861 -4.2341 0
M  V30 45 Pb 7.0779 -3.8199 -4.7499 0
M  V30 46 Ag -4.5262 8.8554 4.2994 0
M  V30 47 Fe -5.3985 6.6428 4.4024 0
M  V30 48 Ag -6.0818 4.3726 4.1839 0
M  V30 49 Ag 0.3031 4.3240 3.0360 0
M  V30 50 Fe -0.0081 2.1124 3.8381 0
M  V30 51 Ag -0.2789 -0.0553 4.7656 0
M  V30 52 Ag 1.1031 -1.6617 3.9971 0
M  V30 53 Fe 2.4815 -0.9031 2.2249 0
M  V30 54 Ag 3.8319 -0.1301 0.4375 0
M  V30 55 Ag 0.4555 -8.0729 -5.8022 0
M  V30 56 Fe -1.4333 -7.6080 -4.4816 0
M  V30 57 Ag -2.4883 -7.0894 -2.4452 0
M  V30 58 Ag -1.0502 -6.7316 0.6913 0
M  V30 59 Fe -0.7831 -5.1355 2.4316 0
M  V30 60 Ag -0.5584 -3.4574 4.0994 0
M  V30 61 Ag 5.8471 0.4416 -0.7614 0
M  V30 62 Fe 7.4306 -0.8257 -1.9551 0
M  V30 63 Ag 8.0256 -2.2924 -3.6973 0
M  V30 64 Ag 3.7159 -7.9299 -4.6222 0
M  V30 65 Fe 5.4913 -6.3497 -4.5596 0
M  V30 66 Ag 7.0503 -4.5555 -4.6023 0
M  V30 67 Ag -2.4023 -0.7670 -0.2855 0
M  V30 68 Fe -2.5045 -3.1377 -0.3755 0
M  V30 69 Ag -2.6299 -5.5078 -0.4523 0
M  V30 70 Ag 2.6869 -7.0034 -6.4075 0
M  V30 71 Fe 4.1960 -5.1736 -6.4061 0
M  V30 72 Ag 5.7626 -3.4241 -6.0723 0
M  V30 73 Ag -2.1869 9.8870 4.3738 0
M  V30 74 Fe -0.3254 8.4470 4.3381 0
M  V30 75 Ag 0.8289 6.6268 3.3900 0
M  V30 76 Ag -4.4512 8.8590 2.0157 0
M  V30 77 Fe -5.4141 6.7096 1.7813 0
M  V30 78 Ag -6.1523 4.4655 1.9294 0
M  V30 79 Ag -2.2311 -1.5058 4.9203 0
M  V30 80 Fe -3.9770 0.0579 4.5250 0
M  V30 81 Ag -5.5972 1.7177 4.0050 0
M  V30 82 Ba -2.0575 9.5230 2.0270 0
M  V30 83 Ga -1.0852 8.4334 1.7069 0
M  V30 84 Ba -0.1060 7.3541 1.3736 0
M  V30 85 Ba 4.7762 0.5029 -2.8613 0
M  V30 86 Ga 5.5243 -0.3657 -3.8233 0
M  V30 87 Ba 6.2707 -1.1838 -4.8300 0
M  V30 88 Ba -3.4910 1.1149 -0.1072 0
M  V30 89 Ga -4.5464 1.6292 0.7866 0
M  V30 90 Ba -5.6979 2.0811 1.5919 0
M  V30 91 Ba 1.3678 -8.7785 -3.7024 0
M  V30 92 Ga 0.3852 -8.4170 -2.6288 0
M  V30 93 Ba -0.5741 -8.1636 -1.5043 0
M  V30 94 Ba -0.3643 0.3301 -1.3500 0
M  V30 95 Ga 1.1100 0.2541 -1.4710 0
M  V30 96 Ba 2.5494 0.0725 -1.7709 0
M  V30 97 Ba -1.4184 2.5588 -0.7506 0
M  V30 98 Ga -0.8972 3.7467 -0.0364 0
M  V30 99 Ba -0.3929 5.0056 0.5582 0
M  V30 END ATOM
M  V30 BEGIN BOND
M  V30 1 1 1 2
M  V30 2 1 1 3
M  V30 3 1 1 4
M  V30 4 1 1 5
M  V30 5 1 6 7
M  V30 6 1 6 8
M  V30 7 1 6 9
M  V30 8 1 6 10
M  V30 9 1 11 12
M  V30 10 1 11 13
M  V30 11 1 11 14
M  V30 12 1 11 15
M  V30 13 1 16 17
M  V30 14 1 16 18
M  V30 15 1 16 19
M  V30 16 1 16 20
M  V30 17 1 21 22
M  V30 18 1 21 23
M  V30 19 1 21 24
M  V30 20 1 21 25
M  V30 21 1 26 27
M  V30 22 1 26 28
M  V30 23 1 26 29
M  V30 24 1 26 30
M  V30 25 1 31 32
M  V30 26 1 31 33
M  V30 27 1 31 34
M  V30 28 1 31 35
M  V30 29 1 36 37
M  V30 30 1 36 38
M  V30 31 1 36 39
M  V30 32 1 36 40
M  V30 33 1 41 42
M  V30 34 1 41 43
M  V30 35 1 41 44
M  V30 36 1 41 45
M  V30 37 1 46 47
M  V30 38 1 47 48
M  V30 39 1 49 50
M  V30 40 1 50 51
M  V30 41 1 52 53
M  V30 42 1 53 54
M  V30 43 1 55 56
M  V30 44 1 56 57
M  V30 45 1 58 59
M  V30 46 1 59 60
M  V30 47 1 61 62
M  V30 48 1 62 63
M  V30 49 1 64 65
M  V30 50 1 65 66
M  V30 51 1 67 68
M  V30 52 1 68 69
M  V30 53 1 70 71
M  V30 54 1 71 72
M  V30 55 1 73 74
M  V30 56 1 74 75
M  V30 57 1 76 77
M  V30 58 1 77 78
M  V30 59 1 79 80
M  V30 60 1 80 81
M  V30 61 1 82 83
M  V30 62 1 83 84
M  V30 63 1 85 86
M  V30 64 1 86 87
M  V30 65 1 88 89
M  V30 66 1 89 90
M  V30 67 1 91 92
M  V30 68 1 92 93
M  V30 69 1 94 95
M  V30 70 1 95 96
M  V30 71 1 97 98
M  V30 72 1 98 99
M  V30 73 1 2 73
M  V30 74 1 3 46
M  V30 75 1 4 82
M  V30 76 1 5 76
M  V30 77 1 7 70
M  V30 78 1 8 64
M  V30 79 1 9 91
M  V30 80 1 10 55
M  V30 81 1 12 94
M  V30 82 1 13 67
M  V30 83 1 14 97
M  V30 84 1 15 88
M  V30 85 1 17 57
M  V30 86 1 18 58
M  V30 87 1 19 69
M  V30 88 1 20 93
M  V30 89 1 22 99
M  V30 90 1 23 84
M  V30 91 1 24 49
M  V30 92 1 25 75
M  V30 93 1 27 52
M  V30 94 1 28 79
M  V30 95 1 29 51
M  V30 96 1 30 60
M  V30 97 1 32 96
M  V30 98 1 33 85
M  V30 99 1 34 61
M  V30 100 1 35 54
M  V30 101 1 37 78
M  V30 102 1 38 90
M  V30 103 1 39 81
M  V30 104 1 40 48
M  V30 105 1 42 87
M  V30 106 1 43 72
M  V30 107 1 44 63
M  V30 108 1 45 66
M  V30 END BOND
M  V30 END CTAB
M  END

$$$$
