
     RDKit          3D

  0  0  0  0  0  0  0  0  0  0999 V3000
M  V30 BEGIN CTAB
M  V30 COUNTS 99 108 0 0 0
M  V30 BEGIN ATOM
M  V30 1 Pd -4.7070 -2.1115 -2.9425 0
M  V30 2 Pb -4.1217 -2.1946 -3.7509 0
M  V30 3 Pb -4.6110 -3.0872 -2.7420 0
M  V30 4 Pb -4.8389 -1.1461 -3.1543 0
M  V30 5 Pb -5.2383 -1.9852 -2.1066 0
M  V30 6 Pd 2.1021 -4.5991 4.3837 0
M  V30 7 Pb 2.6497 -3.8471 4.7438 0
M  V30 8 Pb 1.4725 -5.3071 4.0351 0
M  V30 9 Pb 1.6005 -4.6429 5.2409 0
M  V30 10 Pb 2.5129 -4.5436 3.4778 0
M  V30 11 Pd 5.9948 3.0761 -1.5548 0
M  V30 12 Pb 5.8533 2.2025 -2.0245 0
M  V30 13 Pb 6.1547 2.6351 -0.6761 0
M  V30 14 Pb 6.0080 3.9475 -1.0685 0
M  V30 15 Pb 5.7688 3.5200 -2.4181 0
M  V30 16 Pd 1.8195 5.3321 0.4470 0
M  V30 17 Pb 2.7949 5.5468 0.5312 0
M  V30 18 Pb 1.8666 5.5625 -0.5282 0
M  V30 19 Pb 1.7417 5.1114 1.4230 0
M  V30 20 Pb 0.8396 5.1673 0.3547 0
M  V30 21 Pd 2.0727 1.1510 4.5476 0
M  V30 22 Pb 2.4047 0.2647 4.8788 0
M  V30 23 Pb 2.9908 1.2732 4.1773 0
M  V30 24 Pb 1.8285 2.0921 4.2940 0
M  V30 25 Pb 1.1325 1.0051 4.8745 0
M  V30 26 Pd -1.4862 4.7165 -3.7643 0
M  V30 27 Pb -0.5845 5.1435 -3.6787 0
M  V30 28 Pb -1.3879 4.6092 -4.7550 0
M  V30 29 Pb -2.3664 4.2541 -3.8252 0
M  V30 30 Pb -1.6042 4.7783 -2.7746 0
M  V30 31 Pd 1.1606 1.2365 -6.4837 0
M  V30 32 Pb 0.5001 0.4825 -6.5075 0
M  V30 33 Pb 0.4901 1.8748 -6.8582 0
M  V30 34 Pb 1.8138 1.9880 -6.4241 0
M  V30 35 Pb 1.8533 0.6694 -6.0345 0
M  V30 36 Pd -4.4940 -2.9227 4.5841 0
M  V30 37 Pb -4.0983 -2.0429 4.8602 0
M  V30 38 Pb -4.7877 -3.8220 4.2524 0
M  V30 39 Pb -3.9525 -3.3383 5.3089 0
M  V30 40 Pb -5.0243 -2.5117 3.8450 0
M  V30 41 Pd -2.4069 -5.9205 0.7399 0
M  V30 42 Pb -1.7986 -6.1582 1.5122 0
M  V30 43 Pb -2.9911 -5.7758 -0.0613 0
M  V30 44 Pb -3.2129 -6.0419 1.3267 0
M  V30 45 Pb -1.5876 -5.7616 0.1942 0
M  V30 46 Ag -3.6570 -2.2098 -4.3414 0
M  V30 47 Fe -1.8304 -1.1754 -5.4577 0
M  V30 48 Ag -0.0013 -0.0787 -6.5084 0
M  V30 49 Ag 0.4088 0.9349 5.0824 0
M  V30 50 Fe -1.6660 -0.2331 5.0883 0
M  V30 51 Ag -3.7279 -1.4239 5.0801 0
M  V30 52 Ag 5.5315 3.7774 -3.0772 0
M  V30 53 Fe 3.9724 3.2878 -4.7942 0
M  V30 54 Ag 2.3228 2.5240 -6.3157 0
M  V30 55 Ag 2.6299 -4.5577 2.7440 0
M  V30 56 Fe 1.1304 -5.0400 0.9828 0
M  V30 57 Ag -0.9073 -5.6118 -0.0688 0
M  V30 58 Ag 5.6537 1.5922 -2.4165 0
M  V30 59 Fe 4.0916 0.8217 -4.0351 0
M  V30 60 Ag 2.4142 0.3463 -5.6518 0
M  V30 61 Ag 1.1057 -4.6665 5.7947 0
M  V30 62 Fe -1.1999 -4.2046 6.0568 0
M  V30 63 Ag -3.4773 -3.6093 5.8145 0
M  V30 64 Ag -4.9413 -0.4240 -3.3167 0
M  V30 65 Fe -4.0245 1.7440 -3.5995 0
M  V30 66 Ag -3.0042 3.8686 -3.8560 0
M  V30 67 Ag -5.5951 -1.8581 -1.4610 0
M  V30 68 Fe -5.5632 -2.0292 0.9056 0
M  V30 69 Ag -5.4204 -2.2570 3.2634 0
M  V30 70 Ag 6.2165 2.3619 0.0154 0
M  V30 71 Fe 5.0130 1.8115 1.9830 0
M  V30 72 Ag 3.6732 1.3094 3.8740 0
M  V30 73 Ba 3.0125 -3.2738 5.0584 0
M  V30 74 Ga 2.8546 -1.8058 5.0658 0
M  V30 75 Ba 2.7785 -0.3337 5.1437 0
M  V30 76 Ba 1.6264 4.9758 2.1554 0
M  V30 77 Ga 1.6714 3.8536 3.1197 0
M  V30 78 Ba 1.6739 2.8223 4.1815 0
M  V30 79 Ba 1.8971 5.7450 -1.2583 0
M  V30 80 Ga 0.9990 5.5974 -2.4233 0
M  V30 81 Ba 0.0967 5.4468 -3.5846 0
M  V30 82 Ba 0.9758 -5.8432 3.8287 0
M  V30 83 Ga -0.1763 -6.0565 2.9120 0
M  V30 84 Ba -1.3384 -6.4216 2.0584 0
M  V30 85 Ba 0.1017 5.0695 0.2813 0
M  V30 86 Ga -0.8043 4.9328 -0.8715 0
M  V30 87 Ba -1.7002 4.7972 -2.0324 0
M  V30 88 Ba 5.9463 4.5700 -0.6578 0
M  V30 89 Ga 4.7547 5.1798 -0.0369 0
M  V30 90 Ba 3.5229 5.7354 0.5563 0
M  V30 91 Ba -4.9765 -4.4895 3.9599 0
M  V30 92 Ga -4.4009 -5.3155 2.8747 0
M  V30 93 Ba -3.8063 -6.1227 1.7856 0
M  V30 94 Ba -4.5760 -3.8248 -2.6065 0
M  V30 95 Ga -3.9747 -4.7387 -1.6144 0
M  V30 96 Ba -3.4197 -5.7367 -0.6781 0
M  V30 97 Ba -1.3531 4.4823 -5.4950 0
M  V30 98 Ga -0.6811 3.4612 -6.3215 0
M  V30 99 Ba 0.0214 2.4127 -7.0858 0
M  V30 END ATOM
M  V30 BEGIN BOND
M  V30 1 1 1 2
M  V30 2 1 1 3
M  V30 3 1 1 4
M  V30 4 1 1 5
M  V30 5 1 6 7
M  V30 6 1 6 8
M  V30 7 1 6 9
M  V30 8 1 6 10
M  V30 9 1 11 12
M  V30 10 1 11 13
M  V30 11 1 11 14
M  V30 12 1 11 15
M  V30 13 1 16 17
M  V30 14 1 16 18
M  V30 15 1 16 19
M  V30 16 1 16 20
M  V30 17 1 21 22
M  V30 18 1 21 23
M  V30 19 1 21 24
M  V30 20 1 21 25
M  V30 21 1 26 27
M  V30 22 1 26 28
M  V30 23 1 26 29
M  V30 24 1 26 30
M  V30 25 1 31 32
M  V30 26 1 31 33
M  V30 27 1 31 34
M  V30 28 1 31 35
M  V30 29 1 36 37
M  V30 30 1 36 38
M  V30 31 1 36 39
M  V30 32 1 36 40
M  V30 33 1 41 42
M  V30 34 1 41 43
M  V30 35 1 41 44
M  V30 36 1 41 45
M  V30 37 1 46 47
M  V30 38 1 47 48
M  V30 39 1 49 50
M  V30 40 1 50 51
M  V30 41 1 52 53
M  V30 42 1 53 54
M  V30 43 1 55 56
M  V30 44 1 56 57
M  V30 45 1 58 59
M  V30 46 1 59 60
M  V30 47 1 61 62
M  V30 48 1 62 63
M  V30 49 1 64 65
M  V30 50 1 65 66
M  V30 51 1 67 68
M  V30 52 1 68 69
M  V30 53 1 70 71
M  V30 54 1 71 72
M  V30 55 1 73 74
M  V30 56 1 74 75
M  V30 57 1 76 77
M  V30 58 1 77 78
M  V30 59 1 79 80
M  V30 60 1 80 81
M  V30 61 1 82 83
M  V30 62 1 83 84
M  V30 63 1 85 86
M  V30 64 1 86 87
M  V30 65 1 88 89
M  V30 66 1 89 90
M  V30 67 1 91 92
M  V30 68 1 92 93
M  V30 69 1 94 95
M  V30 70 1 95 96
M  V30 71 1 97 98
M  V30 72 1 98 99
M  V30 73 1 2 46
M  V30 74 1 3 94
M  V30 75 1 4 64
M  V30 76 1 5 67
M  V30 77 1 7 73
M  V30 78 1 8 82
M  V30 79 1 9 61
M  V30 80 1 10 55
M  V30 81 1 12 58
M  V30 82 1 13 70
M  V30 83 1 14 88
M  V30 84 1 15 52
M  V30 85 1 17 90
M  V30 86 1 18 79
M  V30 87 1 19 76
M  V30 88 1 20 85
M  V30 89 1 22 75
M  V30 90 1 23 72
M  V30 91 1 24 78
M  V30 92 1 25 49
M  V30 93 1 27 81
M  V30 94 1 28 97
M  V30 95 1 29 66
M  V30 96 1 30 87
M  V30 97 1 32 48
M  V30 98 1 33 99
M  V30 99 1 34 54
M  V30 100 1 35 60
M  V30 101 1 37 51
M  V30 102 1 38 91
M  V30 103 1 39 63
M  V30 104 1 40 69
M  V30 105 1 42 84
M  V30 106 1 43 96
M  V30 107 1 44 93
M  V30 108 1 45 57
M  V30 END BOND
M  V30 END CTAB
M  END

$$$$
