
     RDKit          3D

  0  0  0  0  0  0  0  0  0  0999 V3000
M  V30 BEGIN CTAB
M  V30 COUNTS 99 108 0 0 0
M  V30 BEGIN ATOM
M  V30 1 Pd 2.2296 0.5771 -4.3892 0
M  V30 2 Pb 1.6367 1.2727 -4.7912 0
M  V30 3 Pb 2.8023 -0.1379 -3.9869 0
M  V30 4 Pb 2.9857 1.2319 -4.3320 0
M  V30 5 Pb 1.4410 -0.0358 -4.3871 0
M  V30 6 Pd 1.3063 -8.3001 1.6735 0
M  V30 7 Pb 1.1470 -7.5303 2.2865 0
M  V30 8 Pb 2.2957 -8.1501 1.7118 0
M  V30 9 Pb 0.3223 -8.3856 1.5253 0
M  V30 10 Pb 1.4639 -9.0257 1.0103 0
M  V30 11 Pd -4.0387 3.9201 1.9890 0
M  V30 12 Pb -3.8190 4.8484 1.6833 0
M  V30 13 Pb -4.3249 3.0021 2.2819 0
M  V30 14 Pb -3.8230 4.1974 2.9290 0
M  V30 15 Pb -4.2781 3.6824 1.0468 0
M  V30 16 Pd 0.4367 4.9403 4.9063 0
M  V30 17 Pb -0.5372 5.0856 5.0861 0
M  V30 18 Pb 1.3907 4.7679 4.6536 0
M  V30 19 Pb 0.3227 4.0111 5.2452 0
M  V30 20 Pb 0.5587 5.8541 4.5239 0
M  V30 21 Pd -2.6817 -1.7241 3.0041 0
M  V30 22 Pb -1.9923 -2.4303 3.1585 0
M  V30 23 Pb -3.3949 -1.0212 2.9237 0
M  V30 24 Pb -2.2107 -1.1763 3.6912 0
M  V30 25 Pb -3.1511 -2.2945 2.3251 0
M  V30 26 Pd 4.1785 6.8600 -0.7917 0
M  V30 27 Pb 4.5248 6.3161 -0.0276 0
M  V30 28 Pb 3.6906 7.3559 -1.5058 0
M  V30 29 Pb 4.5615 6.2262 -1.4658 0
M  V30 30 Pb 3.7126 7.4247 -0.1127 0
M  V30 31 Pd -2.6319 6.0028 -2.6858 0
M  V30 32 Pb -2.3349 5.5078 -3.4989 0
M  V30 33 Pb -1.9364 6.6879 -2.8977 0
M  V30 34 Pb -3.2806 5.2764 -2.4583 0
M  V30 35 Pb -2.8566 6.4589 -1.8254 0
M  V30 36 Pd -1.9035 -5.3505 -1.4586 0
M  V30 37 Pb -2.5608 -4.8937 -0.8514 0
M  V30 38 Pb -1.2937 -5.7908 -2.1249 0
M  V30 39 Pb -1.9787 -6.1745 -0.8906 0
M  V30 40 Pb -1.8461 -4.5416 -2.0408 0
M  V30 41 Pd 3.3041 -6.8901 -2.2440 0
M  V30 42 Pb 3.9422 -7.0064 -1.4830 0
M  V30 43 Pb 3.5766 -5.9316 -2.3427 0
M  V30 44 Pb 2.5520 -6.7849 -2.8918 0
M  V30 45 Pb 3.0516 -7.8506 -2.1466 0
M  V30 46 Ag 1.0134 -6.9304 2.7110 0
M  V30 47 Fe -0.2370 -4.9369 3.0161 0
M  V30 48 Ag -1.4731 -2.9380 3.3429 0
M  V30 49 Ag 1.1506 1.7661 -5.0750 0
M  V30 50 Fe -0.4601 3.4573 -4.6579 0
M  V30 51 Ag -2.0358 5.1306 -4.0703 0
M  V30 52 Ag 0.1914 3.3106 5.4641 0
M  V30 53 Fe -0.8060 1.2402 4.8825 0
M  V30 54 Ag -1.8352 -0.7850 4.2050 0
M  V30 55 Ag 2.0892 4.6828 4.3886 0
M  V30 56 Fe 3.5089 5.2212 2.5605 0
M  V30 57 Ag 4.6519 5.9253 0.5999 0
M  V30 58 Ag 0.7354 6.4934 4.1783 0
M  V30 59 Fe 1.9849 7.3057 2.3325 0
M  V30 60 Ag 3.3133 7.7644 0.4212 0
M  V30 61 Ag 3.5286 1.7457 -4.2503 0
M  V30 62 Fe 4.2291 3.7325 -3.1492 0
M  V30 63 Ag 4.7905 5.7192 -1.9710 0
M  V30 64 Ag 0.8159 -0.4475 -4.3618 0
M  V30 65 Fe -0.4761 -2.2094 -3.4345 0
M  V30 66 Ag -1.7794 -3.9684 -2.5174 0
M  V30 67 Ag 3.2235 -0.6809 -3.6851 0
M  V30 68 Fe 3.4973 -2.9548 -3.0523 0
M  V30 69 Ag 3.8092 -5.2198 -2.4053 0
M  V30 70 Ag 3.2112 7.6862 -1.9737 0
M  V30 71 Fe 0.9358 7.5467 -2.6290 0
M  V30 72 Ag -1.3610 7.1387 -3.0601 0
M  V30 73 Ba -3.5308 -2.7188 1.8320 0
M  V30 74 Ga -3.2559 -3.6388 0.7059 0
M  V30 75 Ba -3.0988 -4.5732 -0.4307 0
M  V30 76 Ba -4.4695 3.5293 0.3370 0
M  V30 77 Ga -4.1159 4.1135 -0.9712 0
M  V30 78 Ba -3.7431 4.7184 -2.2647 0
M  V30 79 Ba 1.6116 -9.4987 0.4543 0
M  V30 80 Ga 2.2292 -9.1343 -0.8261 0
M  V30 81 Ba 2.8533 -8.5607 -2.0244 0
M  V30 82 Ba 3.0319 -8.0150 1.6451 0
M  V30 83 Ga 3.7661 -7.5682 0.4445 0
M  V30 84 Ba 4.3242 -7.1235 -0.8481 0
M  V30 85 Ba -3.6904 5.5505 1.4475 0
M  V30 86 Ga -3.3444 6.1701 0.1532 0
M  V30 87 Ba -2.9971 6.7610 -1.1540 0
M  V30 88 Ba -3.6771 4.4549 3.6222 0
M  V30 89 Ga -2.4746 4.7952 4.4124 0
M  V30 90 Ba -1.2766 5.1365 5.2089 0
M  V30 91 Ba -0.4062 -8.4186 1.3545 0
M  V30 92 Ga -1.2455 -7.6011 0.4548 0
M  V30 93 Ba -2.0745 -6.7774 -0.4486 0
M  V30 94 Ba -0.8728 -6.0521 -2.6953 0
M  V30 95 Ga 0.5335 -6.3977 -2.9930 0
M  V30 96 Ba 1.9328 -6.7529 -3.3120 0
M  V30 97 Ba -4.6107 2.3293 2.4712 0
M  V30 98 Ga -4.2133 0.9177 2.6770 0
M  V30 99 Ba -3.9606 -0.5222 2.9132 0
M  V30 END ATOM
M  V30 BEGIN BOND
M  V30 1 1 1 2
M  V30 2 1 1 3
M  V30 3 1 1 4
M  V30 4 1 1 5
M  V30 5 1 6 7
M  V30 6 1 6 8
M  V30 7 1 6 9
M  V30 8 1 6 10
M  V30 9 1 11 12
M  V30 10 1 11 13
M  V30 11 1 11 14
M  V30 12 1 11 15
M  V30 13 1 16 17
M  V30 14 1 16 18
M  V30 15 1 16 19
M  V30 16 1 16 20
M  V30 17 1 21 22
M  V30 18 1 21 23
M  V30 19 1 21 24
M  V30 20 1 21 25
M  V30 21 1 26 27
M  V30 22 1 26 28
M  V30 23 1 26 29
M  V30 24 1 26 30
M  V30 25 1 31 32
M  V30 26 1 31 33
M  V30 27 1 31 34
M  V30 28 1 31 35
M  V30 29 1 36 37
M  V30 30 1 36 38
M  V30 31 1 36 39
M  V30 32 1 36 40
M  V30 33 1 41 42
M  V30 34 1 41 43
M  V30 35 1 41 44
M  V30 36 1 41 45
M  V30 37 1 46 47
M  V30 38 1 47 48
M  V30 39 1 49 50
M  V30 40 1 50 51
M  V30 41 1 52 53
M  V30 42 1 53 54
M  V30 43 1 55 56
M  V30 44 1 56 57
M  V30 45 1 58 59
M  V30 46 1 59 60
M  V30 47 1 61 62
M  V30 48 1 62 63
M  V30 49 1 64 65
M  V30 50 1 65 66
M  V30 51 1 67 68
M  V30 52 1 68 69
M  V30 53 1 70 71
M  V30 54 1 71 72
M  V30 55 1 73 74
M  V30 56 1 74 75
M  V30 57 1 76 77
M  V30 58 1 77 78
M  V30 59 1 79 80
M  V30 60 1 80 81
M  V30 61 1 82 83
M  V30 62 1 83 84
M  V30 63 1 85 86
M  V30 64 1 86 87
M  V30 65 1 88 89
M  V30 66 1 89 90
M  V30 67 1 91 92
M  V30 68 1 92 93
M  V30 69 1 94 95
M  V30 70 1 95 96
M  V30 71 1 97 98
M  V30 72 1 98 99
M  V30 73 1 2 49
M  V30 74 1 3 67
M  V30 75 1 4 61
M  V30 76 1 5 64
M  V30 77 1 7 46
M  V30 78 1 8 82
M  V30 79 1 9 91
M  V30 80 1 10 79
M  V30 81 1 12 85
M  V30 82 1 13 97
M  V30 83 1 14 88
M  V30 84 1 15 76
M  V30 85 1 17 90
M  V30 86 1 18 55
M  V30 87 1 19 52
M  V30 88 1 20 58
M  V30 89 1 22 48
M  V30 90 1 23 99
M  V30 91 1 24 54
M  V30 92 1 25 73
M  V30 93 1 27 57
M  V30 94 1 28 70
M  V30 95 1 29 63
M  V30 96 1 30 60
M  V30 97 1 32 51
M  V30 98 1 33 72
M  V30 99 1 34 78
M  V30 100 1 35 87
M  V30 101 1 37 75
M  V30 102 1 38 94
M  V30 103 1 39 93
M  V30 104 1 40 66
M  V30 105 1 42 84
M  V30 106 1 43 69
M  V30 107 1 44 96
M  V30 108 1 45 81
M  V30 END BOND
M  V30 END CTAB
M  END

$$$$
