
     RDKit          3D

  0  0  0  0  0  0  0  0  0  0999 V3000
M  V30 BEGIN CTAB
M  V30 COUNTS 99 108 0 0 0
M  V30 BEGIN ATOM
M  V30 1 Pd -2.7553 -2.7345 -1.4523 0
M  V30 2 Pb -2.3547 -3.4918 -0.9335 0
M  V30 3 Pb -3.1570 -1.9624 -1.9466 0
M  V30 4 Pb -2.1762 -2.9264 -2.2454 0
M  V30 5 Pb -3.3490 -2.5346 -0.6756 0
M  V30 6 Pd -4.9855 7.1804 0.2188 0
M  V30 7 Pb -4.0623 6.7920 0.1827 0
M  V30 8 Pb -5.0819 7.0423 -0.7788 0
M  V30 9 Pb -5.0477 7.0994 1.2111 0
M  V30 10 Pb -5.8789 7.6204 0.2424 0
M  V30 11 Pd 6.0979 -3.0924 4.1153 0
M  V30 12 Pb 5.3872 -3.7962 4.3032 0
M  V30 13 Pb 5.4648 -2.3480 4.3334 0
M  V30 14 Pb 6.7631 -2.4295 3.7783 0
M  V30 15 Pb 6.7493 -3.8168 3.9199 0
M  V30 16 Pd 6.8511 0.1650 -2.3966 0
M  V30 17 Pb 7.3577 0.0608 -1.5408 0
M  V30 18 Pb 6.3135 0.2594 -3.2343 0
M  V30 19 Pb 6.4505 0.9991 -2.0195 0
M  V30 20 Pb 7.2089 -0.6997 -2.7526 0
M  V30 21 Pd 1.4763 3.0787 2.3496 0
M  V30 22 Pb 0.9583 3.6910 1.7508 0
M  V30 23 Pb 1.9709 2.4505 2.9528 0
M  V30 24 Pb 2.2703 3.1821 1.7496 0
M  V30 25 Pb 0.6775 2.9970 2.9420 0
M  V30 26 Pd 4.1851 -3.4973 -4.7918 0
M  V30 27 Pb 4.2759 -2.5399 -5.0650 0
M  V30 28 Pb 4.0788 -4.4437 -4.4868 0
M  V30 29 Pb 3.1977 -3.4695 -4.9420 0
M  V30 30 Pb 5.1655 -3.5068 -4.5885 0
M  V30 31 Pd 3.0950 -7.2177 1.4173 0
M  V30 32 Pb 2.1450 -6.9087 1.3507 0
M  V30 33 Pb 3.0710 -7.5016 0.4611 0
M  V30 34 Pb 4.0275 -7.5559 1.4745 0
M  V30 35 Pb 3.2011 -6.7995 2.3390 0
M  V30 36 Pd -6.1719 2.7097 2.7263 0
M  V30 37 Pb -5.3142 2.7348 3.2357 0
M  V30 38 Pb -7.0266 2.6175 2.2036 0
M  V30 39 Pb -6.2411 3.6965 2.9093 0
M  V30 40 Pb -6.0450 1.7309 2.5791 0
M  V30 41 Pd -7.7330 3.4060 -2.2497 0
M  V30 42 Pb -7.1893 4.1472 -2.6722 0
M  V30 43 Pb -7.0032 2.7520 -2.4595 0
M  V30 44 Pb -8.1839 2.7910 -1.6066 0
M  V30 45 Pb -8.4815 4.0451 -2.0959 0
M  V30 46 Ag -3.3573 6.5422 0.1034 0
M  V30 47 Fe -1.4218 5.3232 0.7484 0
M  V30 48 Ag 0.5670 4.1423 1.2957 0
M  V30 49 Ag -2.0805 -4.0465 -0.5068 0
M  V30 50 Fe -0.2991 -5.3552 0.3661 0
M  V30 51 Ag 1.4233 -6.7102 1.2856 0
M  V30 52 Ag 0.0697 2.9469 3.3746 0
M  V30 53 Fe -2.2956 2.8434 3.5261 0
M  V30 54 Ag -4.6645 2.7437 3.6057 0
M  V30 55 Ag 6.1414 1.6007 -1.6971 0
M  V30 56 Fe 4.4979 2.4548 -0.2106 0
M  V30 57 Ag 2.8473 3.2866 1.2809 0
M  V30 58 Ag 7.1252 -4.4205 3.7176 0
M  V30 59 Fe 6.3967 -6.3628 2.6092 0
M  V30 60 Ag 4.7473 -7.6872 1.5812 0
M  V30 61 Ag -6.5900 7.8193 0.1862 0
M  V30 62 Fe -8.3277 6.5869 -0.8027 0
M  V30 63 Ag -8.9282 4.6072 -1.9145 0
M  V30 64 Ag 7.2289 -1.9681 3.4185 0
M  V30 65 Fe 7.5648 -0.9283 1.3115 0
M  V30 66 Ag 7.6878 -0.0015 -0.8704 0
M  V30 67 Ag -1.7613 -3.0446 -2.8597 0
M  V30 68 Fe 0.3397 -3.2575 -3.9464 0
M  V30 69 Ag 2.4517 -3.4681 -5.0121 0
M  V30 70 Ag -3.8009 -2.3704 -0.1030 0
M  V30 71 Fe -4.8825 -0.7104 1.2019 0
M  V30 72 Ag -5.9336 1.0003 2.4655 0
M  V30 73 Ag -3.4508 -1.3771 -2.3140 0
M  V30 74 Fe -4.9749 0.4420 -2.4439 0
M  V30 75 Ag -6.4555 2.2861 -2.6802 0
M  V30 76 Ag 3.9504 -5.1358 -4.2282 0
M  V30 77 Fe 3.5221 -6.4821 -2.3207 0
M  V30 78 Ag 3.1165 -7.6176 -0.2763 0
M  V30 79 Ag 5.0178 -1.7722 4.5150 0
M  V30 80 Fe 3.6674 0.0938 3.9297 0
M  V30 81 Ag 2.3016 1.9735 3.4303 0
M  V30 82 Ba 5.9011 0.2912 -3.8597 0
M  V30 83 Ga 5.1227 -0.7353 -4.5774 0
M  V30 84 Ba 4.3673 -1.8160 -5.2378 0
M  V30 85 Ba -5.2056 6.8685 -1.5118 0
M  V30 86 Ga -5.9809 5.8033 -2.2165 0
M  V30 87 Ba -6.7603 4.7327 -2.9086 0
M  V30 88 Ba 4.8516 -4.3325 4.4270 0
M  V30 89 Ga 4.0979 -5.3905 3.6813 0
M  V30 90 Ba 3.2940 -6.4722 3.0276 0
M  V30 91 Ba 7.4320 -1.3594 -3.0347 0
M  V30 92 Ga 6.6963 -2.4359 -3.7286 0
M  V30 93 Ba 5.8957 -3.4700 -4.4151 0
M  V30 94 Ba -5.2317 6.9565 1.9235 0
M  V30 95 Ga -5.7045 5.6959 2.5400 0
M  V30 96 Ba -6.1805 4.4205 3.1228 0
M  V30 97 Ba -7.6410 2.4141 1.8107 0
M  V30 98 Ga -8.0877 2.4218 0.3988 0
M  V30 99 Ba -8.5086 2.4549 -1.0206 0
M  V30 END ATOM
M  V30 BEGIN BOND
M  V30 1 1 1 2
M  V30 2 1 1 3
M  V30 3 1 1 4
M  V30 4 1 1 5
M  V30 5 1 6 7
M  V30 6 1 6 8
M  V30 7 1 6 9
M  V30 8 1 6 10
M  V30 9 1 11 12
M  V30 10 1 11 13
M  V30 11 1 11 14
M  V30 12 1 11 15
M  V30 13 1 16 17
M  V30 14 1 16 18
M  V30 15 1 16 19
M  V30 16 1 16 20
M  V30 17 1 21 22
M  V30 18 1 21 23
M  V30 19 1 21 24
M  V30 20 1 21 25
M  V30 21 1 26 27
M  V30 22 1 26 28
M  V30 23 1 26 29
M  V30 24 1 26 30
M  V30 25 1 31 32
M  V30 26 1 31 33
M  V30 27 1 31 34
M  V30 28 1 31 35
M  V30 29 1 36 37
M  V30 30 1 36 38
M  V30 31 1 36 39
M  V30 32 1 36 40
M  V30 33 1 41 42
M  V30 34 1 41 43
M  V30 35 1 41 44
M  V30 36 1 41 45
M  V30 37 1 46 47
M  V30 38 1 47 48
M  V30 39 1 49 50
M  V30 40 1 50 51
M  V30 41 1 52 53
M  V30 42 1 53 54
M  V30 43 1 55 56
M  V30 44 1 56 57
M  V30 45 1 58 59
M  V30 46 1 59 60
M  V30 47 1 61 62
M  V30 48 1 62 63
M  V30 49 1 64 65
M  V30 50 1 65 66
M  V30 51 1 67 68
M  V30 52 1 68 69
M  V30 53 1 70 71
M  V30 54 1 71 72
M  V30 55 1 73 74
M  V30 56 1 74 75
M  V30 57 1 76 77
M  V30 58 1 77 78
M  V30 59 1 79 80
M  V30 60 1 80 81
M  V30 61 1 82 83
M  V30 62 1 83 84
M  V30 63 1 85 86
M  V30 64 1 86 87
M  V30 65 1 88 89
M  V30 66 1 89 90
M  V30 67 1 91 92
M  V30 68 1 92 93
M  V30 69 1 94 95
M  V30 70 1 95 96
M  V30 71 1 97 98
M  V30 72 1 98 99
M  V30 73 1 2 49
M  V30 74 1 3 73
M  V30 75 1 4 67
M  V30 76 1 5 70
M  V30 77 1 7 46
M  V30 78 1 8 85
M  V30 79 1 9 94
M  V30 80 1 10 61
M  V30 81 1 12 88
M  V30 82 1 13 79
M  V30 83 1 14 64
M  V30 84 1 15 58
M  V30 85 1 17 66
M  V30 86 1 18 82
M  V30 87 1 19 55
M  V30 88 1 20 91
M  V30 89 1 22 48
M  V30 90 1 23 81
M  V30 91 1 24 57
M  V30 92 1 25 52
M  V30 93 1 27 84
M  V30 94 1 28 76
M  V30 95 1 29 69
M  V30 96 1 30 93
M  V30 97 1 32 51
M  V30 98 1 33 78
M  V30 99 1 34 60
M  V30 100 1 35 90
M  V30 101 1 37 54
M  V30 102 1 38 97
M  V30 103 1 39 96
M  V30 104 1 40 72
M  V30 105 1 42 87
M  V30 106 1 43 75
M  V30 107 1 44 99
M  V30 108 1 45 63
M  V30 END BOND
M  V30 END CTAB
M  END

$$$$
