
     RDKit          3D

  0  0  0  0  0  0  0  0  0  0999 V3000
M  V30 BEGIN CTAB
M  V30 COUNTS 99 108 0 0 0
M  V30 BEGIN ATOM
M  V30 1 Pd -1.3262 -3.8602 -1.7315 0
M  V30 2 Pb -2.2201 -4.1466 -2.0808 0
M  V30 3 Pb -0.4788 -3.5635 -1.2945 0
M  V30 4 Pb -1.3664 -4.5281 -0.9884 0
M  V30 5 Pb -1.2690 -3.1978 -2.4850 0
M  V30 6 Pd 7.2769 3.2638 -2.2172 0
M  V30 7 Pb 6.7239 4.0687 -1.9876 0
M  V30 8 Pb 7.4509 3.0561 -1.2544 0
M  V30 9 Pb 6.9919 3.2671 -3.1734 0
M  V30 10 Pb 7.8413 2.4705 -2.4322 0
M  V30 11 Pd -5.1810 2.6628 0.8076 0
M  V30 12 Pb -5.3030 2.1482 -0.0430 0
M  V30 13 Pb -4.5900 3.3079 0.3296 0
M  V30 14 Pb -5.0546 3.2013 1.6448 0
M  V30 15 Pb -5.7778 2.0085 1.2722 0
M  V30 16 Pd -1.7382 2.7030 4.9853 0
M  V30 17 Pb -2.4541 3.3442 4.7074 0
M  V30 18 Pb -1.0780 1.9870 5.2229 0
M  V30 19 Pb -1.0275 3.2829 4.5781 0
M  V30 20 Pb -2.4264 2.1301 5.4269 0
M  V30 21 Pd 1.9167 5.4321 -1.1707 0
M  V30 22 Pb 2.9107 5.5675 -1.2193 0
M  V30 23 Pb 0.9203 5.3832 -1.1449 0
M  V30 24 Pb 1.9243 5.5165 -0.1736 0
M  V30 25 Pb 1.8462 5.2525 -2.1500 0
M  V30 26 Pd -2.7390 -4.3189 5.4727 0
M  V30 27 Pb -1.9032 -3.7995 5.6625 0
M  V30 28 Pb -3.5942 -4.7276 5.1642 0
M  V30 29 Pb -2.2745 -4.9368 4.8426 0
M  V30 30 Pb -3.2323 -3.6147 5.9762 0
M  V30 31 Pd -6.2832 -2.4132 -0.3270 0
M  V30 32 Pb -5.9175 -3.0461 -1.0139 0
M  V30 33 Pb -6.4068 -3.1618 0.3227 0
M  V30 34 Pb -6.6189 -1.7786 0.3715 0
M  V30 35 Pb -6.1345 -1.6390 -0.9408 0
M  V30 36 Pd 1.9235 -0.5395 -5.3580 0
M  V30 37 Pb 1.5727 0.3883 -5.4667 0
M  V30 38 Pb 2.3345 -1.4367 -5.1878 0
M  V30 39 Pb 2.8045 -0.1230 -5.5891 0
M  V30 40 Pb 1.0145 -0.8874 -5.1117 0
M  V30 41 Pd 6.2933 -3.0855 -0.3474 0
M  V30 42 Pb 6.6150 -2.3960 0.3053 0
M  V30 43 Pb 5.3948 -3.1022 0.0811 0
M  V30 44 Pb 5.9107 -3.6126 -1.1043 0
M  V30 45 Pb 7.1323 -2.9312 -0.8580 0
M  V30 46 Ag 1.7008 5.0370 -2.8519 0
M  V30 47 Fe 1.5239 3.1523 -4.2832 0
M  V30 48 Ag 1.4287 1.1215 -5.5073 0
M  V30 49 Ag -0.4905 3.7286 4.2935 0
M  V30 50 Fe 0.7085 4.6435 2.4551 0
M  V30 51 Ag 1.8698 5.5223 0.5754 0
M  V30 52 Ag -0.6748 1.3758 5.3983 0
M  V30 53 Fe -0.8514 -0.9855 5.6248 0
M  V30 54 Ag -1.3410 -3.3092 5.7621 0
M  V30 55 Ag 8.2291 1.8426 -2.5438 0
M  V30 56 Fe 8.2009 -0.4682 -2.0307 0
M  V30 57 Ag 7.6919 -2.6449 -1.2538 0
M  V30 58 Ag 7.5343 2.7199 -0.5879 0
M  V30 59 Fe 7.2560 0.5224 0.2761 0
M  V30 60 Ag 6.8430 -1.7843 0.6798 0
M  V30 61 Ag -2.8880 1.6535 5.7728 0
M  V30 62 Fe -3.3576 -0.6436 6.1279 0
M  V30 63 Ag -3.5526 -3.0030 6.2590 0
M  V30 64 Ag 6.7463 3.0920 -3.8590 0
M  V30 65 Fe 5.1126 1.7329 -4.9218 0
M  V30 66 Ag 3.4012 0.3065 -5.7487 0
M  V30 67 Ag -1.3286 -4.9922 -0.4004 0
M  V30 68 Fe -1.6270 -5.2796 1.9370 0
M  V30 69 Ag -2.0081 -5.3493 4.2788 0
M  V30 70 Ag 2.6686 -2.0839 -5.0038 0
M  V30 71 Fe 4.1086 -3.1330 -3.4331 0
M  V30 72 Ag 5.5626 -3.8809 -1.7106 0
M  V30 73 Ag 0.1055 -3.4133 -0.8496 0
M  V30 74 Fe 2.4016 -3.2416 -0.2760 0
M  V30 75 Ag 4.6903 -3.0517 0.3211 0
M  V30 76 Ag -4.2096 -4.9640 4.8136 0
M  V30 77 Fe -5.4652 -4.4583 2.8662 0
M  V30 78 Ag -6.4641 -3.6791 0.8609 0
M  V30 79 Ag -4.1472 3.7923 -0.0271 0
M  V30 80 Fe -1.9726 4.5662 -0.5749 0
M  V30 81 Ag 0.1724 5.3918 -1.1619 0
M  V30 82 Ba 6.3499 4.6945 -1.7992 0
M  V30 83 Ga 4.9682 5.1544 -1.5383 0
M  V30 84 Ba 3.6428 5.7456 -1.2513 0
M  V30 85 Ba -2.9063 -4.3389 -2.3202 0
M  V30 86 Ga -4.2735 -3.9344 -1.9288 0
M  V30 87 Ba -5.6342 -3.5199 -1.5261 0
M  V30 88 Ba -6.2300 1.4993 1.5867 0
M  V30 89 Ga -6.5513 0.0967 1.2569 0
M  V30 90 Ba -6.8546 -1.3045 0.9048 0
M  V30 91 Ba -5.3963 1.7688 -0.6851 0
M  V30 92 Ga -5.7048 0.3703 -1.0406 0
M  V30 93 Ba -6.0141 -1.0350 -1.3675 0
M  V30 94 Ba -4.9450 3.6429 2.2455 0
M  V30 95 Ga -3.9856 3.7108 3.3678 0
M  V30 96 Ba -3.0271 3.7784 4.4911 0
M  V30 97 Ba -1.2989 -2.7276 -3.0748 0
M  V30 98 Ga -0.4313 -1.9346 -3.9746 0
M  V30 99 Ba 0.3101 -1.0981 -4.9453 0
M  V30 END ATOM
M  V30 BEGIN BOND
M  V30 1 1 1 2
M  V30 2 1 1 3
M  V30 3 1 1 4
M  V30 4 1 1 5
M  V30 5 1 6 7
M  V30 6 1 6 8
M  V30 7 1 6 9
M  V30 8 1 6 10
M  V30 9 1 11 12
M  V30 10 1 11 13
M  V30 11 1 11 14
M  V30 12 1 11 15
M  V30 13 1 16 17
M  V30 14 1 16 18
M  V30 15 1 16 19
M  V30 16 1 16 20
M  V30 17 1 21 22
M  V30 18 1 21 23
M  V30 19 1 21 24
M  V30 20 1 21 25
M  V30 21 1 26 27
M  V30 22 1 26 28
M  V30 23 1 26 29
M  V30 24 1 26 30
M  V30 25 1 31 32
M  V30 26 1 31 33
M  V30 27 1 31 34
M  V30 28 1 31 35
M  V30 29 1 36 37
M  V30 30 1 36 38
M  V30 31 1 36 39
M  V30 32 1 36 40
M  V30 33 1 41 42
M  V30 34 1 41 43
M  V30 35 1 41 44
M  V30 36 1 41 45
M  V30 37 1 46 47
M  V30 38 1 47 48
M  V30 39 1 49 50
M  V30 40 1 50 51
M  V30 41 1 52 53
M  V30 42 1 53 54
M  V30 43 1 55 56
M  V30 44 1 56 57
M  V30 45 1 58 59
M  V30 46 1 59 60
M  V30 47 1 61 62
M  V30 48 1 62 63
M  V30 49 1 64 65
M  V30 50 1 65 66
M  V30 51 1 67 68
M  V30 52 1 68 69
M  V30 53 1 70 71
M  V30 54 1 71 72
M  V30 55 1 73 74
M  V30 56 1 74 75
M  V30 57 1 76 77
M  V30 58 1 77 78
M  V30 59 1 79 80
M  V30 60 1 80 81
M  V30 61 1 82 83
M  V30 62 1 83 84
M  V30 63 1 85 86
M  V30 64 1 86 87
M  V30 65 1 88 89
M  V30 66 1 89 90
M  V30 67 1 91 92
M  V30 68 1 92 93
M  V30 69 1 94 95
M  V30 70 1 95 96
M  V30 71 1 97 98
M  V30 72 1 98 99
M  V30 73 1 2 85
M  V30 74 1 3 73
M  V30 75 1 4 67
M  V30 76 1 5 97
M  V30 77 1 7 82
M  V30 78 1 8 58
M  V30 79 1 9 64
M  V30 80 1 10 55
M  V30 81 1 12 91
M  V30 82 1 13 79
M  V30 83 1 14 94
M  V30 84 1 15 88
M  V30 85 1 17 96
M  V30 86 1 18 52
M  V30 87 1 19 49
M  V30 88 1 20 61
M  V30 89 1 22 84
M  V30 90 1 23 81
M  V30 91 1 24 51
M  V30 92 1 25 46
M  V30 93 1 27 54
M  V30 94 1 28 76
M  V30 95 1 29 69
M  V30 96 1 30 63
M  V30 97 1 32 87
M  V30 98 1 33 78
M  V30 99 1 34 90
M  V30 100 1 35 93
M  V30 101 1 37 48
M  V30 102 1 38 70
M  V30 103 1 39 66
M  V30 104 1 40 99
M  V30 105 1 42 60
M  V30 106 1 43 75
M  V30 107 1 44 72
M  V30 108 1 45 57
M  V30 END BOND
M  V30 END CTAB
M  END

$$$$
