
     RDKit          3D

  0  0  0  0  0  0  0  0  0  0999 V3000
M  V30 BEGIN CTAB
M  V30 COUNTS 99 108 0 0 0
M  V30 BEGIN ATOM
M  V30 1 Pd 2.9647 -7.3189 -1.8552 0
M  V30 2 Pb 3.0843 -6.7636 -2.6778 0
M  V30 3 Pb 2.7022 -8.1262 -2.3872 0
M  V30 4 Pb 2.8161 -7.8576 -1.0326 0
M  V30 5 Pb 2.7893 -6.4990 -1.3065 0
M  V30 6 Pd -0.4959 1.4164 -3.3930 0
M  V30 7 Pb -0.6877 0.5474 -3.8546 0
M  V30 8 Pb 0.4533 1.3865 -3.7149 0
M  V30 9 Pb -1.4304 1.4255 -3.0416 0
M  V30 10 Pb -0.3513 2.3000 -2.9463 0
M  V30 11 Pd -0.6232 5.4437 4.5229 0
M  V30 12 Pb -1.4409 5.0425 4.1088 0
M  V30 13 Pb -0.1382 4.5948 4.2810 0
M  V30 14 Pb -1.0949 6.3105 4.6649 0
M  V30 15 Pb 0.1657 5.8505 5.0227 0
M  V30 16 Pd 2.5407 4.2844 0.5483 0
M  V30 17 Pb 2.0960 3.6046 1.1349 0
M  V30 18 Pb 2.9363 5.1128 0.1421 0
M  V30 19 Pb 1.7552 4.3463 -0.0672 0
M  V30 20 Pb 3.3325 4.2592 1.1496 0
M  V30 21 Pd 2.5472 -2.1768 -2.3784 0
M  V30 22 Pb 2.0347 -2.8428 -1.8351 0
M  V30 23 Pb 2.9150 -1.4424 -2.9451 0
M  V30 24 Pb 2.7545 -2.8628 -3.0755 0
M  V30 25 Pb 2.3446 -1.5143 -1.6607 0
M  V30 26 Pd -2.9416 -7.5952 -0.9059 0
M  V30 27 Pb -2.4740 -8.0780 -0.1728 0
M  V30 28 Pb -3.3982 -7.1171 -1.6565 0
M  V30 29 Pb -2.7738 -8.3941 -1.4872 0
M  V30 30 Pb -2.6948 -6.7394 -0.4474 0
M  V30 31 Pd -3.1540 -0.9873 1.7626 0
M  V30 32 Pb -2.2487 -0.5740 1.8109 0
M  V30 33 Pb -4.0511 -1.3957 1.5998 0
M  V30 34 Pb -2.6965 -1.8341 1.4832 0
M  V30 35 Pb -3.5497 -0.1025 2.0048 0
M  V30 36 Pd 3.5523 9.2989 4.4673 0
M  V30 37 Pb 3.8277 9.5599 3.5423 0
M  V30 38 Pb 2.7598 9.9031 4.4694 0
M  V30 39 Pb 3.1291 8.7728 5.2149 0
M  V30 40 Pb 4.2843 8.6264 4.4553 0
M  V30 41 Pd -4.2214 -2.3882 -2.6931 0
M  V30 42 Pb -4.1667 -1.4157 -2.4718 0
M  V30 43 Pb -4.3103 -3.3518 -2.9469 0
M  V30 44 Pb -4.8839 -2.5064 -1.9527 0
M  V30 45 Pb -3.5075 -2.2617 -3.3846 0
M  V30 46 Ag 2.5533 -8.2239 -0.4445 0
M  V30 47 Fe 0.3487 -8.5704 0.3161 0
M  V30 48 Ag -2.0032 -8.4056 0.2968 0
M  V30 49 Ag 2.2569 -8.6611 -2.6791 0
M  V30 50 Fe -0.0861 -9.0550 -2.4876 0
M  V30 51 Ag -2.3928 -8.8904 -1.9096 0
M  V30 52 Ag -1.2876 7.0265 4.7202 0
M  V30 53 Fe 0.0405 8.9764 4.6546 0
M  V30 54 Ag 2.0694 10.1731 4.5127 0
M  V30 55 Ag 1.5586 -3.2445 -1.4155 0
M  V30 56 Fe -0.3703 -2.9841 -0.0505 0
M  V30 57 Ag -2.2764 -2.4132 1.2506 0
M  V30 58 Ag 2.4016 -5.9815 -0.9167 0
M  V30 59 Fe 0.0872 -5.7898 -0.3794 0
M  V30 60 Ag -2.2566 -6.1808 -0.1914 0
M  V30 61 Ag 3.9049 4.3615 1.6118 0
M  V30 62 Fe 4.6189 6.0504 3.1016 0
M  V30 63 Ag 4.7291 8.0382 4.3732 0
M  V30 64 Ag -2.0499 4.6990 3.8360 0
M  V30 65 Fe -2.9911 2.6875 2.9945 0
M  V30 66 Ag -3.7603 0.5967 2.1721 0
M  V30 67 Ag 2.1477 -1.0680 -1.0948 0
M  V30 68 Fe 0.3852 -0.5627 0.4076 0
M  V30 69 Ag -1.5568 -0.3043 1.7417 0
M  V30 70 Ag 3.2161 5.7979 -0.0049 0
M  V30 71 Fe 3.6897 7.8070 1.1796 0
M  V30 72 Ag 3.9660 9.5230 2.8047 0
M  V30 73 Ba -3.7427 -6.7854 -2.2345 0
M  V30 74 Ga -4.0555 -5.4115 -2.6720 0
M  V30 75 Ba -4.3988 -4.0642 -3.1658 0
M  V30 76 Ba -0.8592 -0.0934 -4.2101 0
M  V30 77 Ga -1.9012 -1.1295 -4.0476 0
M  V30 78 Ba -2.9473 -2.1598 -3.8759 0
M  V30 79 Ba 1.1697 1.3256 -3.9373 0
M  V30 80 Ga 2.1800 0.2787 -3.6890 0
M  V30 81 Ba 3.0819 -0.8415 -3.3584 0
M  V30 82 Ba 0.1650 3.9454 4.0346 0
M  V30 83 Ga 0.9739 3.5388 2.8590 0
M  V30 84 Ba 1.7865 3.1759 1.6718 0
M  V30 85 Ba 3.1627 -6.3210 -3.2778 0
M  V30 86 Ga 3.0446 -4.8624 -3.4591 0
M  V30 87 Ba 2.9125 -3.3985 -3.5757 0
M  V30 88 Ba -2.1228 1.4229 -2.7576 0
M  V30 89 Ga -3.1361 0.3766 -2.5381 0
M  V30 90 Ba -4.1383 -0.6818 -2.3257 0
M  V30 91 Ba 0.6867 6.1767 5.4842 0
M  V30 92 Ga 1.7338 7.2408 5.5454 0
M  V30 93 Ba 2.7968 8.2813 5.6903 0
M  V30 94 Ba -0.3124 2.9738 -2.6174 0
M  V30 95 Ga 0.4638 3.6676 -1.5720 0
M  V30 96 Ba 1.1836 4.4423 -0.5430 0
M  V30 97 Ba -4.6976 -1.7104 1.3895 0
M  V30 98 Ga -5.0896 -2.1636 0.0423 0
M  V30 99 Ba -5.3339 -2.5659 -1.3551 0
M  V30 END ATOM
M  V30 BEGIN BOND
M  V30 1 1 1 2
M  V30 2 1 1 3
M  V30 3 1 1 4
M  V30 4 1 1 5
M  V30 5 1 6 7
M  V30 6 1 6 8
M  V30 7 1 6 9
M  V30 8 1 6 10
M  V30 9 1 11 12
M  V30 10 1 11 13
M  V30 11 1 11 14
M  V30 12 1 11 15
M  V30 13 1 16 17
M  V30 14 1 16 18
M  V30 15 1 16 19
M  V30 16 1 16 20
M  V30 17 1 21 22
M  V30 18 1 21 23
M  V30 19 1 21 24
M  V30 20 1 21 25
M  V30 21 1 26 27
M  V30 22 1 26 28
M  V30 23 1 26 29
M  V30 24 1 26 30
M  V30 25 1 31 32
M  V30 26 1 31 33
M  V30 27 1 31 34
M  V30 28 1 31 35
M  V30 29 1 36 37
M  V30 30 1 36 38
M  V30 31 1 36 39
M  V30 32 1 36 40
M  V30 33 1 41 42
M  V30 34 1 41 43
M  V30 35 1 41 44
M  V30 36 1 41 45
M  V30 37 1 46 47
M  V30 38 1 47 48
M  V30 39 1 49 50
M  V30 40 1 50 51
M  V30 41 1 52 53
M  V30 42 1 53 54
M  V30 43 1 55 56
M  V30 44 1 56 57
M  V30 45 1 58 59
M  V30 46 1 59 60
M  V30 47 1 61 62
M  V30 48 1 62 63
M  V30 49 1 64 65
M  V30 50 1 65 66
M  V30 51 1 67 68
M  V30 52 1 68 69
M  V30 53 1 70 71
M  V30 54 1 71 72
M  V30 55 1 73 74
M  V30 56 1 74 75
M  V30 57 1 76 77
M  V30 58 1 77 78
M  V30 59 1 79 80
M  V30 60 1 80 81
M  V30 61 1 82 83
M  V30 62 1 83 84
M  V30 63 1 85 86
M  V30 64 1 86 87
M  V30 65 1 88 89
M  V30 66 1 89 90
M  V30 67 1 91 92
M  V30 68 1 92 93
M  V30 69 1 94 95
M  V30 70 1 95 96
M  V30 71 1 97 98
M  V30 72 1 98 99
M  V30 73 1 2 85
M  V30 74 1 3 49
M  V30 75 1 4 46
M  V30 76 1 5 58
M  V30 77 1 7 76
M  V30 78 1 8 79
M  V30 79 1 9 88
M  V30 80 1 10 94
M  V30 81 1 12 64
M  V30 82 1 13 82
M  V30 83 1 14 52
M  V30 84 1 15 91
M  V30 85 1 17 84
M  V30 86 1 18 70
M  V30 87 1 19 96
M  V30 88 1 20 61
M  V30 89 1 22 55
M  V30 90 1 23 81
M  V30 91 1 24 87
M  V30 92 1 25 67
M  V30 93 1 27 48
M  V30 94 1 28 73
M  V30 95 1 29 51
M  V30 96 1 30 60
M  V30 97 1 32 69
M  V30 98 1 33 97
M  V30 99 1 34 57
M  V30 100 1 35 66
M  V30 101 1 37 72
M  V30 102 1 38 54
M  V30 103 1 39 93
M  V30 104 1 40 63
M  V30 105 1 42 90
M  V30 106 1 43 75
M  V30 107 1 44 99
M  V30 108 1 45 78
M  V30 END BOND
M  V30 END CTAB
M  END

$$$$
