
     RDKit          3D

  0  0  0  0  0  0  0  0  0  0999 V3000
M  V30 BEGIN CTAB
M  V30 COUNTS 99 108 0 0 0
M  V30 BEGIN ATOM
M  V30 1 Pd -0.4416 -4.8019 0.2905 0
M  V30 2 Pb 0.5469 -4.6612 0.3651 0
M  V30 3 Pb -0.2862 -5.1397 -0.6336 0
M  V30 4 Pb -0.5681 -4.5905 1.2637 0
M  V30 5 Pb -1.4262 -4.8170 0.1095 0
M  V30 6 Pd -2.7515 -1.7586 4.8710 0
M  V30 7 Pb -3.2950 -0.9878 5.2322 0
M  V30 8 Pb -3.3199 -1.7475 4.0520 0
M  V30 9 Pb -2.1904 -2.5148 4.5284 0
M  V30 10 Pb -2.1780 -1.6749 5.6854 0
M  V30 11 Pd -3.5137 3.8328 4.3713 0
M  V30 12 Pb -3.1152 4.4839 3.7318 0
M  V30 13 Pb -4.0761 3.4571 3.6382 0
M  V30 14 Pb -2.8898 4.1382 5.0907 0
M  V30 15 Pb -3.8526 3.0920 4.9621 0
M  V30 16 Pd 4.1202 0.7603 1.3983 0
M  V30 17 Pb 3.8868 1.6094 1.8808 0
M  V30 18 Pb 4.5762 1.2784 0.6676 0
M  V30 19 Pb 3.7270 0.2322 2.1448 0
M  V30 20 Pb 4.2771 -0.1265 0.9663 0
M  V30 21 Pd -0.7363 3.1791 -2.4283 0
M  V30 22 Pb -1.2938 2.5166 -1.9263 0
M  V30 23 Pb -0.1131 3.8214 -2.8733 0
M  V30 24 Pb -0.8516 3.8380 -1.6878 0
M  V30 25 Pb -0.6673 2.5326 -3.1895 0
M  V30 26 Pd 1.0532 1.6978 5.7473 0
M  V30 27 Pb 1.5164 0.8983 5.3802 0
M  V30 28 Pb 1.5647 2.2840 5.1099 0
M  V30 29 Pb 0.5617 2.4925 6.1096 0
M  V30 30 Pb 0.5750 1.0764 6.3703 0
M  V30 31 Pd 0.8295 -3.3545 -6.8917 0
M  V30 32 Pb 0.8362 -2.4423 -7.2950 0
M  V30 33 Pb -0.1611 -3.4443 -6.9786 0
M  V30 34 Pb 1.7947 -3.2155 -6.6713 0
M  V30 35 Pb 0.8166 -4.2025 -6.3755 0
M  V30 36 Pd -2.5974 -1.8621 -3.2828 0
M  V30 37 Pb -2.6786 -2.4245 -4.1099 0
M  V30 38 Pb -2.1202 -1.1675 -3.8254 0
M  V30 39 Pb -3.0229 -2.5706 -2.7095 0
M  V30 40 Pb -2.5772 -1.2487 -2.4937 0
M  V30 41 Pd 4.0224 2.3403 -4.1364 0
M  V30 42 Pb 4.5536 2.4557 -3.2938 0
M  V30 43 Pb 4.4041 1.4303 -4.2947 0
M  V30 44 Pb 3.4775 2.1973 -4.9621 0
M  V30 45 Pb 3.5802 3.2278 -4.0198 0
M  V30 46 Ag 0.9132 -1.7240 -7.4857 0
M  V30 47 Fe 1.9336 0.2539 -6.6638 0
M  V30 48 Ag 3.0666 2.0253 -5.5646 0
M  V30 49 Ag -0.1413 -5.4367 -1.3029 0
M  V30 50 Fe 0.3186 -5.2015 -3.6146 0
M  V30 51 Ag 0.7590 -4.7713 -5.9015 0
M  V30 52 Ag -2.7842 4.8907 3.2018 0
M  V30 53 Fe -1.8482 4.7233 1.0300 0
M  V30 54 Ag -0.9690 4.3292 -1.1364 0
M  V30 55 Ag -3.7503 -1.5292 3.4871 0
M  V30 56 Fe -4.3840 0.6697 2.9066 0
M  V30 57 Ag -4.4189 3.0185 3.1444 0
M  V30 58 Ag 1.2761 -4.4822 0.3278 0
M  V30 59 Fe 2.8834 -2.7407 0.5022 0
M  V30 60 Ag 4.2935 -0.8446 0.7517 0
M  V30 61 Ag 2.4823 -3.0283 -6.4387 0
M  V30 62 Fe 3.6938 -1.2377 -5.4570 0
M  V30 63 Ag 4.5978 0.7327 -4.4885 0
M  V30 64 Ba 3.6778 2.2256 2.2625 0
M  V30 65 Ga 2.8209 2.4681 3.4473 0
M  V30 66 Ba 1.9640 2.7123 4.6319 0
M  V30 67 Ba 4.9612 1.6890 0.1644 0
M  V30 68 Ga 4.9175 2.0894 -1.2596 0
M  V30 69 Ba 4.9613 2.5441 -2.6674 0
M  V30 70 Ba -2.1433 -4.7758 -0.1142 0
M  V30 71 Ga -2.7648 -3.9475 -1.1736 0
M  V30 72 Ba -3.3193 -3.0903 -2.2471 0
M  V30 73 Ba 3.4661 -0.1910 2.7006 0
M  V30 74 Ga 2.6557 0.0439 3.9017 0
M  V30 75 Ba 1.8440 0.2920 5.0992 0
M  V30 76 Ba -1.7699 -1.5293 6.2975 0
M  V30 77 Ga -0.7542 -0.4956 6.5799 0
M  V30 78 Ba 0.2555 0.5568 6.8098 0
M  V30 79 Ba -0.9041 -3.5317 -6.9416 0
M  V30 80 Ga -1.8533 -3.1719 -5.8683 0
M  V30 81 Ba -2.7574 -2.7916 -4.7634 0
M  V30 82 Ba 0.3946 4.2984 -3.1503 0
M  V30 83 Ga 1.7960 4.1226 -3.5714 0
M  V30 84 Ba 3.1895 3.8649 -3.9763 0
M  V30 85 Ba -3.7005 -0.4260 5.5440 0
M  V30 86 Ga -3.8788 1.0447 5.4311 0
M  V30 87 Ba -4.1090 2.5116 5.3745 0
M  V30 88 Ba -0.6510 2.0476 -3.7628 0
M  V30 89 Ga -1.1940 0.6928 -3.9918 0
M  V30 90 Ba -1.7347 -0.6618 -4.2274 0
M  V30 91 Ba -0.6093 -4.5287 2.0139 0
M  V30 92 Ga -1.2213 -3.7517 3.1128 0
M  V30 93 Ba -1.7449 -3.0851 4.3243 0
M  V30 94 Ba -1.6732 2.0102 -1.5219 0
M  V30 95 Ga -2.1340 0.6231 -1.7243 0
M  V30 96 Ba -2.5972 -0.7639 -1.9220 0
M  V30 97 Ba -2.3906 4.3257 5.6185 0
M  V30 98 Ga -1.1006 3.7247 6.0129 0
M  V30 99 Ba 0.1829 3.0877 6.3703 0
M  V30 END ATOM
M  V30 BEGIN BOND
M  V30 1 1 1 2
M  V30 2 1 1 3
M  V30 3 1 1 4
M  V30 4 1 1 5
M  V30 5 1 6 7
M  V30 6 1 6 8
M  V30 7 1 6 9
M  V30 8 1 6 10
M  V30 9 1 11 12
M  V30 10 1 11 13
M  V30 11 1 11 14
M  V30 12 1 11 15
M  V30 13 1 16 17
M  V30 14 1 16 18
M  V30 15 1 16 19
M  V30 16 1 16 20
M  V30 17 1 21 22
M  V30 18 1 21 23
M  V30 19 1 21 24
M  V30 20 1 21 25
M  V30 21 1 26 27
M  V30 22 1 26 28
M  V30 23 1 26 29
M  V30 24 1 26 30
M  V30 25 1 31 32
M  V30 26 1 31 33
M  V30 27 1 31 34
M  V30 28 1 31 35
M  V30 29 1 36 37
M  V30 30 1 36 38
M  V30 31 1 36 39
M  V30 32 1 36 40
M  V30 33 1 41 42
M  V30 34 1 41 43
M  V30 35 1 41 44
M  V30 36 1 41 45
M  V30 37 1 46 47
M  V30 38 1 47 48
M  V30 39 1 49 50
M  V30 40 1 50 51
M  V30 41 1 52 53
M  V30 42 1 53 54
M  V30 43 1 55 56
M  V30 44 1 56 57
M  V30 45 1 58 59
M  V30 46 1 59 60
M  V30 47 1 61 62
M  V30 48 1 62 63
M  V30 49 1 64 65
M  V30 50 1 65 66
M  V30 51 1 67 68
M  V30 52 1 68 69
M  V30 53 1 70 71
M  V30 54 1 71 72
M  V30 55 1 73 74
M  V30 56 1 74 75
M  V30 57 1 76 77
M  V30 58 1 77 78
M  V30 59 1 79 80
M  V30 60 1 80 81
M  V30 61 1 82 83
M  V30 62 1 83 84
M  V30 63 1 85 86
M  V30 64 1 86 87
M  V30 65 1 88 89
M  V30 66 1 89 90
M  V30 67 1 91 92
M  V30 68 1 92 93
M  V30 69 1 94 95
M  V30 70 1 95 96
M  V30 71 1 97 98
M  V30 72 1 98 99
M  V30 73 1 2 58
M  V30 74 1 3 49
M  V30 75 1 4 91
M  V30 76 1 5 70
M  V30 77 1 7 85
M  V30 78 1 8 55
M  V30 79 1 9 93
M  V30 80 1 10 76
M  V30 81 1 12 52
M  V30 82 1 13 57
M  V30 83 1 14 97
M  V30 84 1 15 87
M  V30 85 1 17 64
M  V30 86 1 18 67
M  V30 87 1 19 73
M  V30 88 1 20 60
M  V30 89 1 22 94
M  V30 90 1 23 82
M  V30 91 1 24 54
M  V30 92 1 25 88
M  V30 93 1 27 75
M  V30 94 1 28 66
M  V30 95 1 29 99
M  V30 96 1 30 78
M  V30 97 1 32 46
M  V30 98 1 33 79
M  V30 99 1 34 61
M  V30 100 1 35 51
M  V30 101 1 37 81
M  V30 102 1 38 90
M  V30 103 1 39 72
M  V30 104 1 40 96
M  V30 105 1 42 69
M  V30 106 1 43 63
M  V30 107 1 44 48
M  V30 108 1 45 84
M  V30 END BOND
M  V30 END CTAB
M  END

$$$$
