
     RDKit          3D

  0  0  0  0  0  0  0  0  0  0999 V3000
M  V30 BEGIN CTAB
M  V30 COUNTS 99 108 0 0 0
M  V30 BEGIN ATOM
M  V30 1 Pd -3.9906 3.1251 -6.2205 0
M  V30 2 Pb -4.2410 3.4458 -5.2820 0
M  V30 3 Pb -3.7431 2.8509 -7.1417 0
M  V30 4 Pb -3.6724 4.0373 -6.4423 0
M  V30 5 Pb -4.2170 2.1533 -6.0071 0
M  V30 6 Pd -3.1978 2.4662 5.7605 0
M  V30 7 Pb -4.0466 1.9584 5.6490 0
M  V30 8 Pb -2.7867 1.6443 6.1793 0
M  V30 9 Pb -3.5728 3.2114 5.2110 0
M  V30 10 Pb -2.3411 2.9596 5.9234 0
M  V30 11 Pd -1.9701 -2.4635 -6.1566 0
M  V30 12 Pb -1.8787 -2.1114 -7.0801 0
M  V30 13 Pb -2.7744 -1.8526 -6.0076 0
M  V30 14 Pb -2.0159 -2.8928 -5.2524 0
M  V30 15 Pb -1.1275 -2.9850 -6.2056 0
M  V30 16 Pd 3.1438 3.3268 2.8172 0
M  V30 17 Pb 3.0054 2.9182 1.9226 0
M  V30 18 Pb 3.5853 2.4886 3.1590 0
M  V30 19 Pb 3.0116 3.6672 3.7430 0
M  V30 20 Pb 2.6947 4.1589 2.4891 0
M  V30 21 Pd 6.4361 -1.2043 1.3765 0
M  V30 22 Pb 6.1786 -2.1442 1.6744 0
M  V30 23 Pb 5.9476 -0.7723 2.1430 0
M  V30 24 Pb 6.8943 -1.6051 0.5911 0
M  V30 25 Pb 6.4188 -0.3800 0.8221 0
M  V30 26 Pd -2.6731 6.0727 -1.0906 0
M  V30 27 Pb -2.2799 6.4827 -1.9027 0
M  V30 28 Pb -3.1254 5.7935 -0.2416 0
M  V30 29 Pb -1.9192 6.4329 -0.5434 0
M  V30 30 Pb -3.3668 5.5979 -1.6703 0
M  V30 31 Pd 1.5599 -3.3315 -0.0589 0
M  V30 32 Pb 1.3707 -3.3449 0.9352 0
M  V30 33 Pb 1.3242 -2.3700 -0.1488 0
M  V30 34 Pb 1.4714 -3.5807 -1.0234 0
M  V30 35 Pb 2.1251 -2.9337 -0.7822 0
M  V30 36 Pd -1.9227 -3.1633 4.6500 0
M  V30 37 Pb -1.8649 -2.3562 5.2624 0
M  V30 38 Pb -1.9333 -3.9868 4.0998 0
M  V30 39 Pb -2.9077 -3.1734 4.7897 0
M  V30 40 Pb -0.9469 -3.1243 4.4171 0
M  V30 41 Pd 2.7343 -5.1417 -0.6272 0
M  V30 42 Pb 3.4829 -4.9890 0.0616 0
M  V30 43 Pb 1.9298 -5.1394 -1.2322 0
M  V30 44 Pb 2.0771 -5.4270 0.0607 0
M  V30 45 Pb 3.3838 -4.9643 -1.3580 0
M  V30 46 Ag -0.5085 -3.3484 -6.0181 0
M  V30 47 Fe 0.6247 -3.6421 -3.9576 0
M  V30 48 Ag 1.4869 -3.7631 -1.7519 0
M  V30 49 Ag -3.8535 3.7082 4.7253 0
M  V30 50 Fe -3.6575 4.6991 2.5747 0
M  V30 51 Ag -3.4635 5.6846 0.4213 0
M  V30 52 Ag -3.5111 2.5460 -7.7736 0
M  V30 53 Fe -2.6048 0.4292 -8.2554 0
M  V30 54 Ag -1.8802 -1.7440 -7.7210 0
M  V30 55 Ag -1.7820 -4.5827 3.6882 0
M  V30 56 Fe -0.1908 -5.2467 2.0691 0
M  V30 57 Ag 1.5106 -5.6666 0.4799 0
M  V30 58 Ag -3.3521 4.7009 -6.4770 0
M  V30 59 Fe -2.5256 6.1027 -4.7792 0
M  V30 60 Ag -2.0953 6.7596 -2.5619 0
M  V30 61 Ag 6.1902 -0.0408 0.2060 0
M  V30 62 Fe 4.3296 -0.9605 -0.9262 0
M  V30 63 Ag 2.5166 -2.4565 -1.2095 0
M  V30 64 Ag 2.3409 4.7797 2.2583 0
M  V30 65 Fe 0.5332 5.7689 1.0775 0
M  V30 66 Ag -1.3200 6.6237 -0.1368 0
M  V30 67 Ag -1.9301 -3.3150 -4.6338 0
M  V30 68 Fe -0.3575 -4.1933 -3.0749 0
M  V30 69 Ag 1.2415 -5.0718 -1.5431 0
M  V30 70 Ag 2.7300 2.5838 1.3174 0
M  V30 71 Fe 1.9924 0.5163 0.4267 0
M  V30 72 Ag 1.3166 -1.6382 -0.2901 0
M  V30 73 Ag 7.0752 -1.9299 -0.0483 0
M  V30 74 Fe 5.8381 -3.4400 -1.3615 0
M  V30 75 Ag 3.9682 -4.8046 -1.7828 0
M  V30 76 Ag -4.5936 1.4607 5.5854 0
M  V30 77 Fe -4.5867 -0.8729 5.2455 0
M  V30 78 Ag -3.6206 -2.9924 4.8796 0
M  V30 79 Ag -1.6777 3.2824 6.0692 0
M  V30 80 Fe 0.5607 3.6731 5.3800 0
M  V30 81 Ag 2.7071 3.8832 4.3886 0
M  V30 82 Ba -2.4564 1.0236 6.4685 0
M  V30 83 Ga -2.1646 -0.3809 6.0639 0
M  V30 84 Ba -1.8100 -1.8012 5.7850 0
M  V30 85 Ba 5.9386 -2.8688 1.7946 0
M  V30 86 Ga 4.9641 -3.8328 1.1665 0
M  V30 87 Ba 4.0209 -4.8697 0.6117 0
M  V30 88 Ba 1.3623 -3.3109 1.6966 0
M  V30 89 Ga 0.5090 -3.2241 2.9097 0
M  V30 90 Ba -0.2243 -3.1378 4.1996 0
M  V30 91 Ba -4.3989 1.4185 -5.8642 0
M  V30 92 Ga -3.8220 0.0342 -5.8924 0
M  V30 93 Ba -3.3832 -1.4000 -5.8719 0
M  V30 94 Ba 3.9018 1.8663 3.4516 0
M  V30 95 Ga 4.7476 0.7196 3.0392 0
M  V30 96 Ba 5.5877 -0.4638 2.7323 0
M  V30 97 Ba -4.4886 3.7006 -4.5964 0
M  V30 98 Ga -4.1019 4.4711 -3.3682 0
M  V30 99 Ba -3.8929 5.2093 -2.0785 0
M  V30 END ATOM
M  V30 BEGIN BOND
M  V30 1 1 1 2
M  V30 2 1 1 3
M  V30 3 1 1 4
M  V30 4 1 1 5
M  V30 5 1 6 7
M  V30 6 1 6 8
M  V30 7 1 6 9
M  V30 8 1 6 10
M  V30 9 1 11 12
M  V30 10 1 11 13
M  V30 11 1 11 14
M  V30 12 1 11 15
M  V30 13 1 16 17
M  V30 14 1 16 18
M  V30 15 1 16 19
M  V30 16 1 16 20
M  V30 17 1 21 22
M  V30 18 1 21 23
M  V30 19 1 21 24
M  V30 20 1 21 25
M  V30 21 1 26 27
M  V30 22 1 26 28
M  V30 23 1 26 29
M  V30 24 1 26 30
M  V30 25 1 31 32
M  V30 26 1 31 33
M  V30 27 1 31 34
M  V30 28 1 31 35
M  V30 29 1 36 37
M  V30 30 1 36 38
M  V30 31 1 36 39
M  V30 32 1 36 40
M  V30 33 1 41 42
M  V30 34 1 41 43
M  V30 35 1 41 44
M  V30 36 1 41 45
M  V30 37 1 46 47
M  V30 38 1 47 48
M  V30 39 1 49 50
M  V30 40 1 50 51
M  V30 41 1 52 53
M  V30 42 1 53 54
M  V30 43 1 55 56
M  V30 44 1 56 57
M  V30 45 1 58 59
M  V30 46 1 59 60
M  V30 47 1 61 62
M  V30 48 1 62 63
M  V30 49 1 64 65
M  V30 50 1 65 66
M  V30 51 1 67 68
M  V30 52 1 68 69
M  V30 53 1 70 71
M  V30 54 1 71 72
M  V30 55 1 73 74
M  V30 56 1 74 75
M  V30 57 1 76 77
M  V30 58 1 77 78
M  V30 59 1 79 80
M  V30 60 1 80 81
M  V30 61 1 82 83
M  V30 62 1 83 84
M  V30 63 1 85 86
M  V30 64 1 86 87
M  V30 65 1 88 89
M  V30 66 1 89 90
M  V30 67 1 91 92
M  V30 68 1 92 93
M  V30 69 1 94 95
M  V30 70 1 95 96
M  V30 71 1 97 98
M  V30 72 1 98 99
M  V30 73 1 2 97
M  V30 74 1 3 52
M  V30 75 1 4 58
M  V30 76 1 5 91
M  V30 77 1 7 76
M  V30 78 1 8 82
M  V30 79 1 9 49
M  V30 80 1 10 79
M  V30 81 1 12 54
M  V30 82 1 13 93
M  V30 83 1 14 67
M  V30 84 1 15 46
M  V30 85 1 17 70
M  V30 86 1 18 94
M  V30 87 1 19 81
M  V30 88 1 20 64
M  V30 89 1 22 85
M  V30 90 1 23 96
M  V30 91 1 24 73
M  V30 92 1 25 61
M  V30 93 1 27 60
M  V30 94 1 28 51
M  V30 95 1 29 66
M  V30 96 1 30 99
M  V30 97 1 32 88
M  V30 98 1 33 72
M  V30 99 1 34 48
M  V30 100 1 35 63
M  V30 101 1 37 84
M  V30 102 1 38 55
M  V30 103 1 39 78
M  V30 104 1 40 90
M  V30 105 1 42 87
M  V30 106 1 43 69
M  V30 107 1 44 57
M  V30 108 1 45 75
M  V30 END BOND
M  V30 END CTAB
M  END

$$$$
