
     RDKit          3D

  0  0  0  0  0  0  0  0  0  0999 V3000
M  V30 BEGIN CTAB
M  V30 COUNTS 99 108 0 0 0
M  V30 BEGIN ATOM
M  V30 1 Pd 1.1298 -0.3688 -4.3330 0
M  V30 2 Pb 0.8489 0.5916 -4.3567 0
M  V30 3 Pb 1.4159 -1.3154 -4.4736 0
M  V30 4 Pb 0.1834 -0.6858 -4.2439 0
M  V30 5 Pb 2.0880 -0.0764 -4.3344 0
M  V30 6 Pd 5.4427 -5.6671 2.1974 0
M  V30 7 Pb 4.7176 -5.2816 2.7657 0
M  V30 8 Pb 4.9374 -6.5249 2.1367 0
M  V30 9 Pb 5.9415 -4.8003 2.1846 0
M  V30 10 Pb 6.1225 -6.0469 1.5562 0
M  V30 11 Pd -2.9057 6.7342 3.2442 0
M  V30 12 Pb -2.1185 7.2599 2.9462 0
M  V30 13 Pb -2.3561 6.3532 3.9832 0
M  V30 14 Pb -3.6870 6.2256 3.6084 0
M  V30 15 Pb -3.3964 6.9996 2.3906 0
M  V30 16 Pd -6.8756 0.3367 3.5219 0
M  V30 17 Pb -6.8041 1.1508 4.0933 0
M  V30 18 Pb -6.8812 -0.3783 2.7954 0
M  V30 19 Pb -6.0500 -0.0347 3.9507 0
M  V30 20 Pb -7.7239 0.7040 3.1610 0
M  V30 21 Pd 0.7620 0.2115 4.5872 0
M  V30 22 Pb 1.0561 -0.7366 4.4715 0
M  V30 23 Pb 0.5037 1.1511 4.8148 0
M  V30 24 Pb -0.1032 -0.1181 4.9635 0
M  V30 25 Pb 1.5689 0.5366 4.0923 0
M  V30 26 Pd -6.5199 -0.0863 -2.2198 0
M  V30 27 Pb -6.6209 -0.6805 -1.3971 0
M  V30 28 Pb -6.3754 0.6209 -2.9070 0
M  V30 29 Pb -5.6657 -0.5318 -2.4943 0
M  V30 30 Pb -7.3950 0.3355 -2.0170 0
M  V30 31 Pd -2.5560 6.2996 -2.5801 0
M  V30 32 Pb -1.9453 5.8555 -3.2319 0
M  V30 33 Pb -3.2955 5.7336 -2.9443 0
M  V30 34 Pb -3.1311 6.6694 -1.8220 0
M  V30 35 Pb -1.8028 6.8714 -2.2788 0
M  V30 36 Pd 5.7573 -1.1777 -1.1717 0
M  V30 37 Pb 5.3286 -0.5513 -0.5174 0
M  V30 38 Pb 6.2358 -1.7775 -1.8184 0
M  V30 39 Pb 6.1779 -1.6282 -0.3790 0
M  V30 40 Pb 5.3809 -0.6791 -1.9597 0
M  V30 41 Pd 5.7257 -6.3730 -3.2147 0
M  V30 42 Pb 5.1961 -7.1858 -2.9832 0
M  V30 43 Pb 5.0163 -6.0763 -3.8473 0
M  V30 44 Pb 6.2404 -5.5331 -3.3889 0
M  V30 45 Pb 6.3608 -6.5984 -2.4671 0
M  V30 46 Ag 4.1359 -5.0108 3.1518 0
M  V30 47 Fe 2.7289 -3.2063 3.7850 0
M  V30 48 Ag 1.2788 -1.4522 4.4608 0
M  V30 49 Ag 0.6753 1.3133 -4.4735 0
M  V30 50 Fe -0.4121 3.3826 -4.0543 0
M  V30 51 Ag -1.4767 5.4704 -3.6693 0
M  V30 52 Ag 2.1326 0.7770 3.6581 0
M  V30 53 Fe 3.6021 0.3491 1.8394 0
M  V30 54 Ag 5.0630 -0.0937 0.0174 0
M  V30 55 Ag -5.4523 -0.2901 4.3285 0
M  V30 56 Fe -3.1173 -0.3426 4.7653 0
M  V30 57 Ag -0.7766 -0.3730 5.1723 0
M  V30 58 Ag 4.5964 -7.1404 1.8991 0
M  V30 59 Fe 4.4085 -7.9185 -0.3182 0
M  V30 60 Ag 4.8234 -7.7228 -2.6305 0
M  V30 61 Ag -1.5644 7.6153 2.6113 0
M  V30 62 Fe -0.9788 7.7657 0.3398 0
M  V30 63 Ag -1.2885 7.2776 -1.9386 0
M  V30 64 Ag -8.3055 0.9544 2.7816 0
M  V30 65 Fe -8.6851 1.0350 0.4649 0
M  V30 66 Ag -8.0150 0.6351 -1.7507 0
M  V30 67 Ag -4.2286 5.8367 3.9544 0
M  V30 68 Fe -5.5053 3.8544 4.2375 0
M  V30 69 Ag -6.7203 1.8217 4.4126 0
M  V30 70 Ag -0.5006 -0.9784 -4.1327 0
M  V30 71 Fe -2.7699 -0.8704 -3.4325 0
M  V30 72 Ag -5.0501 -0.8719 -2.7600 0
M  V30 73 Ag 1.6271 -2.0080 -4.6665 0
M  V30 74 Fe 3.0216 -3.9187 -4.4834 0
M  V30 75 Ag 4.4478 -5.7992 -4.2429 0
M  V30 76 Ag -6.2516 1.2277 -3.3247 0
M  V30 77 Fe -5.0506 3.2747 -3.3665 0
M  V30 78 Ag -3.7979 5.2892 -3.2808 0
M  V30 79 Ag -1.9208 5.9861 4.4667 0
M  V30 80 Fe -0.7846 3.9282 4.7984 0
M  V30 81 Ag 0.3207 1.8417 5.0460 0
M  V30 82 Ba -6.8822 -0.8955 2.2249 0
M  V30 83 Ga -6.7851 -0.9490 0.7283 0
M  V30 84 Ba -6.6966 -1.1085 -0.7611 0
M  V30 85 Ba -3.7540 7.1880 1.7352 0
M  V30 86 Ga -3.6028 7.0364 0.2500 0
M  V30 87 Ba -3.5617 6.9502 -1.2475 0
M  V30 88 Ba 6.6234 -6.3343 1.0639 0
M  V30 89 Ga 6.7058 -6.5350 -0.4061 0
M  V30 90 Ba 6.8076 -6.7445 -1.8737 0
M  V30 91 Ba 6.3382 -4.1654 2.1325 0
M  V30 92 Ga 6.3966 -3.0415 1.1738 0
M  V30 93 Ba 6.5015 -1.8935 0.2485 0
M  V30 94 Ba 2.8049 0.1493 -4.3075 0
M  V30 95 Ga 3.9626 -0.0967 -3.4187 0
M  V30 96 Ba 5.1603 -0.2960 -2.5725 0
M  V30 97 Ba 6.6124 -2.1827 -2.3302 0
M  V30 98 Ga 6.6017 -3.5474 -2.8967 0
M  V30 99 Ba 6.6289 -4.8996 -3.4923 0
M  V30 END ATOM
M  V30 BEGIN BOND
M  V30 1 1 1 2
M  V30 2 1 1 3
M  V30 3 1 1 4
M  V30 4 1 1 5
M  V30 5 1 6 7
M  V30 6 1 6 8
M  V30 7 1 6 9
M  V30 8 1 6 10
M  V30 9 1 11 12
M  V30 10 1 11 13
M  V30 11 1 11 14
M  V30 12 1 11 15
M  V30 13 1 16 17
M  V30 14 1 16 18
M  V30 15 1 16 19
M  V30 16 1 16 20
M  V30 17 1 21 22
M  V30 18 1 21 23
M  V30 19 1 21 24
M  V30 20 1 21 25
M  V30 21 1 26 27
M  V30 22 1 26 28
M  V30 23 1 26 29
M  V30 24 1 26 30
M  V30 25 1 31 32
M  V30 26 1 31 33
M  V30 27 1 31 34
M  V30 28 1 31 35
M  V30 29 1 36 37
M  V30 30 1 36 38
M  V30 31 1 36 39
M  V30 32 1 36 40
M  V30 33 1 41 42
M  V30 34 1 41 43
M  V30 35 1 41 44
M  V30 36 1 41 45
M  V30 37 1 46 47
M  V30 38 1 47 48
M  V30 39 1 49 50
M  V30 40 1 50 51
M  V30 41 1 52 53
M  V30 42 1 53 54
M  V30 43 1 55 56
M  V30 44 1 56 57
M  V30 45 1 58 59
M  V30 46 1 59 60
M  V30 47 1 61 62
M  V30 48 1 62 63
M  V30 49 1 64 65
M  V30 50 1 65 66
M  V30 51 1 67 68
M  V30 52 1 68 69
M  V30 53 1 70 71
M  V30 54 1 71 72
M  V30 55 1 73 74
M  V30 56 1 74 75
M  V30 57 1 76 77
M  V30 58 1 77 78
M  V30 59 1 79 80
M  V30 60 1 80 81
M  V30 61 1 82 83
M  V30 62 1 83 84
M  V30 63 1 85 86
M  V30 64 1 86 87
M  V30 65 1 88 89
M  V30 66 1 89 90
M  V30 67 1 91 92
M  V30 68 1 92 93
M  V30 69 1 94 95
M  V30 70 1 95 96
M  V30 71 1 97 98
M  V30 72 1 98 99
M  V30 73 1 2 49
M  V30 74 1 3 73
M  V30 75 1 4 70
M  V30 76 1 5 94
M  V30 77 1 7 46
M  V30 78 1 8 58
M  V30 79 1 9 91
M  V30 80 1 10 88
M  V30 81 1 12 61
M  V30 82 1 13 79
M  V30 83 1 14 67
M  V30 84 1 15 85
M  V30 85 1 17 69
M  V30 86 1 18 82
M  V30 87 1 19 55
M  V30 88 1 20 64
M  V30 89 1 22 48
M  V30 90 1 23 81
M  V30 91 1 24 57
M  V30 92 1 25 52
M  V30 93 1 27 84
M  V30 94 1 28 76
M  V30 95 1 29 72
M  V30 96 1 30 66
M  V30 97 1 32 51
M  V30 98 1 33 78
M  V30 99 1 34 87
M  V30 100 1 35 63
M  V30 101 1 37 54
M  V30 102 1 38 97
M  V30 103 1 39 93
M  V30 104 1 40 96
M  V30 105 1 42 60
M  V30 106 1 43 75
M  V30 107 1 44 99
M  V30 108 1 45 90
M  V30 END BOND
M  V30 END CTAB
M  END

$$$$
