
     RDKit          3D

  0  0  0  0  0  0  0  0  0  0999 V3000
M  V30 BEGIN CTAB
M  V30 COUNTS 99 108 0 0 0
M  V30 BEGIN ATOM
M  V30 1 Pd 4.2401 -3.0830 0.9117 0
M  V30 2 Pb 4.8541 -2.2907 0.8601 0
M  V30 3 Pb 3.7803 -3.9714 0.9649 0
M  V30 4 Pb 4.1991 -3.1307 -0.0844 0
M  V30 5 Pb 4.1333 -2.9678 1.8979 0
M  V30 6 Pd -6.1854 -3.7666 0.3852 0
M  V30 7 Pb -6.2445 -2.8834 -0.0789 0
M  V30 8 Pb -5.5853 -4.1359 -0.3274 0
M  V30 9 Pb -6.5564 -3.4373 1.2486 0
M  V30 10 Pb -6.1029 -4.6370 0.8521 0
M  V30 11 Pd 1.0352 6.6134 0.3567 0
M  V30 12 Pb 1.4696 6.3675 1.2112 0
M  V30 13 Pb 0.1741 6.7014 0.8435 0
M  V30 14 Pb 0.5174 6.9018 -0.4521 0
M  V30 15 Pb 1.8858 6.3572 -0.1535 0
M  V30 16 Pd -1.4794 4.5690 -3.9641 0
M  V30 17 Pb -1.6600 5.4206 -3.4799 0
M  V30 18 Pb -0.7411 5.0745 -4.3845 0
M  V30 19 Pb -2.3211 4.1352 -3.6233 0
M  V30 20 Pb -1.1594 3.7134 -4.4241 0
M  V30 21 Pd -4.5191 1.9086 0.2617 0
M  V30 22 Pb -4.9549 1.0855 -0.1087 0
M  V30 23 Pb -4.1866 2.7743 0.6276 0
M  V30 24 Pb -4.5995 2.3095 -0.6536 0
M  V30 25 Pb -4.3472 1.5188 1.1688 0
M  V30 26 Pd 3.2854 1.2651 -5.2180 0
M  V30 27 Pb 3.4331 2.1669 -5.5981 0
M  V30 28 Pb 4.2497 1.2610 -4.9689 0
M  V30 29 Pb 3.2143 0.3349 -4.8614 0
M  V30 30 Pb 2.2746 1.3572 -5.3473 0
M  V30 31 Pd 5.3962 2.4899 -0.4406 0
M  V30 32 Pb 5.8074 1.6261 -0.1495 0
M  V30 33 Pb 5.6777 2.2905 -1.3826 0
M  V30 34 Pb 4.9467 3.3756 -0.7034 0
M  V30 35 Pb 5.2172 2.6771 0.5144 0
M  V30 36 Pd -1.6074 -3.2072 5.4524 0
M  V30 37 Pb -1.8977 -2.2732 5.2427 0
M  V30 38 Pb -1.3145 -4.1526 5.6221 0
M  V30 39 Pb -2.5912 -3.3980 5.4453 0
M  V30 40 Pb -0.6335 -2.9764 5.4340 0
M  V30 41 Pd -0.2562 -6.8520 2.1329 0
M  V30 42 Pb -0.5935 -6.7034 1.1979 0
M  V30 43 Pb 0.6876 -6.6658 1.8589 0
M  V30 44 Pb -0.0330 -6.8941 3.1065 0
M  V30 45 Pb -1.1845 -7.1006 2.3769 0
M  V30 46 Ag -4.1387 1.3149 1.8627 0
M  V30 47 Fe -3.1659 -0.1646 3.4489 0
M  V30 48 Ag -2.2062 -1.6095 5.0745 0
M  V30 49 Ag -0.1704 5.3907 -4.7256 0
M  V30 50 Fe 1.8888 4.5881 -5.5115 0
M  V30 51 Ag 3.4553 2.8696 -5.8139 0
M  V30 52 Ag -5.9497 -5.2564 1.2266 0
M  V30 53 Fe -4.0544 -6.4455 1.9794 0
M  V30 54 Ag -1.8985 -7.2579 2.4948 0
M  V30 55 Ag -5.0241 -4.4552 -0.7159 0
M  V30 56 Fe -2.9466 -5.5305 -0.2693 0
M  V30 57 Ag -0.9535 -6.5421 0.5533 0
M  V30 58 Ag 1.8284 6.1019 1.7968 0
M  V30 59 Fe 3.5118 4.4794 2.0136 0
M  V30 60 Ag 5.0417 2.8972 1.1950 0
M  V30 61 Ag -6.6382 -3.3313 1.9839 0
M  V30 62 Fe -5.1444 -3.3322 3.8314 0
M  V30 63 Ag -3.3414 -3.3941 5.3784 0
M  V30 64 Ag 4.0744 -3.1244 -0.8224 0
M  V30 65 Fe 3.6613 -1.7929 -2.7435 0
M  V30 66 Ag 3.2583 -0.3642 -4.5958 0
M  V30 67 Ag 3.9445 -2.8572 2.6141 0
M  V30 68 Fe 2.0848 -2.8305 4.0911 0
M  V30 69 Ag 0.1071 -2.8541 5.4063 0
M  V30 70 Ag -0.5016 6.6391 1.1455 0
M  V30 71 Fe -2.3104 5.1104 1.1177 0
M  V30 72 Ag -3.9646 3.4265 0.9167 0
M  V30 73 Ba -6.2831 -2.2448 -0.4690 0
M  V30 74 Ga -5.7751 -0.8603 -0.3959 0
M  V30 75 Ba -5.3456 0.5503 -0.4659 0
M  V30 76 Ba 5.4051 -1.7774 0.8245 0
M  V30 77 Ga 5.6974 -0.3796 0.4457 0
M  V30 78 Ba 6.1218 0.9940 0.1039 0
M  V30 79 Ba -3.0048 3.8647 -3.4453 0
M  V30 80 Ga -3.7767 3.2216 -2.3578 0
M  V30 81 Ba -4.6559 2.5800 -1.3536 0
M  V30 82 Ba 2.5205 6.1497 -0.5460 0
M  V30 83 Ga 3.5454 5.0533 -0.6661 0
M  V30 84 Ba 4.6460 4.0581 -0.9203 0
M  V30 85 Ba -0.9099 3.0750 -4.7811 0
M  V30 86 Ga 0.3428 2.2961 -5.0700 0
M  V30 87 Ba 1.5089 1.4202 -5.4337 0
M  V30 88 Ba 0.0189 7.1545 -0.9585 0
M  V30 89 Ga -0.8223 6.6219 -2.0494 0
M  V30 90 Ba -1.6561 6.0893 -3.1460 0
M  V30 91 Ba -1.0069 -4.8335 5.7294 0
M  V30 92 Ga -0.4833 -5.8788 4.8222 0
M  V30 93 Ba 0.0144 -6.8825 3.8557 0
M  V30 94 Ba 3.5505 -4.6870 0.9901 0
M  V30 95 Ga 2.4148 -5.5663 1.3312 0
M  V30 96 Ba 1.3952 -6.5941 1.6203 0
M  V30 97 Ba 4.9505 1.3179 -4.7185 0
M  V30 98 Ga 5.4593 1.7095 -3.3902 0
M  V30 99 Ba 5.9554 2.1055 -2.0583 0
M  V30 END ATOM
M  V30 BEGIN BOND
M  V30 1 1 1 2
M  V30 2 1 1 3
M  V30 3 1 1 4
M  V30 4 1 1 5
M  V30 5 1 6 7
M  V30 6 1 6 8
M  V30 7 1 6 9
M  V30 8 1 6 10
M  V30 9 1 11 12
M  V30 10 1 11 13
M  V30 11 1 11 14
M  V30 12 1 11 15
M  V30 13 1 16 17
M  V30 14 1 16 18
M  V30 15 1 16 19
M  V30 16 1 16 20
M  V30 17 1 21 22
M  V30 18 1 21 23
M  V30 19 1 21 24
M  V30 20 1 21 25
M  V30 21 1 26 27
M  V30 22 1 26 28
M  V30 23 1 26 29
M  V30 24 1 26 30
M  V30 25 1 31 32
M  V30 26 1 31 33
M  V30 27 1 31 34
M  V30 28 1 31 35
M  V30 29 1 36 37
M  V30 30 1 36 38
M  V30 31 1 36 39
M  V30 32 1 36 40
M  V30 33 1 41 42
M  V30 34 1 41 43
M  V30 35 1 41 44
M  V30 36 1 41 45
M  V30 37 1 46 47
M  V30 38 1 47 48
M  V30 39 1 49 50
M  V30 40 1 50 51
M  V30 41 1 52 53
M  V30 42 1 53 54
M  V30 43 1 55 56
M  V30 44 1 56 57
M  V30 45 1 58 59
M  V30 46 1 59 60
M  V30 47 1 61 62
M  V30 48 1 62 63
M  V30 49 1 64 65
M  V30 50 1 65 66
M  V30 51 1 67 68
M  V30 52 1 68 69
M  V30 53 1 70 71
M  V30 54 1 71 72
M  V30 55 1 73 74
M  V30 56 1 74 75
M  V30 57 1 76 77
M  V30 58 1 77 78
M  V30 59 1 79 80
M  V30 60 1 80 81
M  V30 61 1 82 83
M  V30 62 1 83 84
M  V30 63 1 85 86
M  V30 64 1 86 87
M  V30 65 1 88 89
M  V30 66 1 89 90
M  V30 67 1 91 92
M  V30 68 1 92 93
M  V30 69 1 94 95
M  V30 70 1 95 96
M  V30 71 1 97 98
M  V30 72 1 98 99
M  V30 73 1 2 76
M  V30 74 1 3 94
M  V30 75 1 4 64
M  V30 76 1 5 67
M  V30 77 1 7 73
M  V30 78 1 8 55
M  V30 79 1 9 61
M  V30 80 1 10 52
M  V30 81 1 12 58
M  V30 82 1 13 70
M  V30 83 1 14 88
M  V30 84 1 15 82
M  V30 85 1 17 90
M  V30 86 1 18 49
M  V30 87 1 19 79
M  V30 88 1 20 85
M  V30 89 1 22 75
M  V30 90 1 23 72
M  V30 91 1 24 81
M  V30 92 1 25 46
M  V30 93 1 27 51
M  V30 94 1 28 97
M  V30 95 1 29 66
M  V30 96 1 30 87
M  V30 97 1 32 78
M  V30 98 1 33 99
M  V30 99 1 34 84
M  V30 100 1 35 60
M  V30 101 1 37 48
M  V30 102 1 38 91
M  V30 103 1 39 63
M  V30 104 1 40 69
M  V30 105 1 42 57
M  V30 106 1 43 96
M  V30 107 1 44 93
M  V30 108 1 45 54
M  V30 END BOND
M  V30 END CTAB
M  END

$$$$
