
     RDKit          3D

  0  0  0  0  0  0  0  0  0  0999 V3000
M  V30 BEGIN CTAB
M  V30 COUNTS 99 108 0 0 0
M  V30 BEGIN ATOM
M  V30 1 Pd -5.8215 -0.9313 1.0749 0
M  V30 2 Pb -5.9485 -1.1277 0.1030 0
M  V30 3 Pb -5.6699 -0.6882 2.0358 0
M  V30 4 Pb -5.9890 0.0243 0.8442 0
M  V30 5 Pb -5.6250 -1.8934 1.2622 0
M  V30 6 Pd 2.9942 0.0722 5.5144 0
M  V30 7 Pb 2.6673 0.3261 4.6026 0
M  V30 8 Pb 2.3277 0.7109 5.9382 0
M  V30 9 Pb 3.4590 -0.7313 5.1492 0
M  V30 10 Pb 3.3203 -0.1793 6.4206 0
M  V30 11 Pd 2.8723 -1.1310 -7.0589 0
M  V30 12 Pb 2.0290 -0.7056 -7.4328 0
M  V30 13 Pb 3.6462 -1.5102 -6.5551 0
M  V30 14 Pb 3.2962 -0.2344 -6.9557 0
M  V30 15 Pb 2.4392 -2.0241 -7.1126 0
M  V30 16 Pd 3.4990 4.4021 -2.0132 0
M  V30 17 Pb 3.8498 4.0837 -2.8913 0
M  V30 18 Pb 3.1301 4.7264 -1.1496 0
M  V30 19 Pb 4.2676 3.9816 -1.5296 0
M  V30 20 Pb 2.6848 4.7688 -2.4991 0
M  V30 21 Pd 4.0998 -0.5204 -0.1002 0
M  V30 22 Pb 3.4966 -0.1102 0.5877 0
M  V30 23 Pb 4.6467 -0.9118 -0.8401 0
M  V30 24 Pb 4.6851 0.2926 -0.0797 0
M  V30 25 Pb 3.5109 -1.3282 -0.1558 0
M  V30 26 Pd -2.4506 4.6024 -2.6430 0
M  V30 27 Pb -2.1765 4.9195 -1.7422 0
M  V30 28 Pb -2.7363 4.2805 -3.5499 0
M  V30 29 Pb -3.3316 4.3470 -2.2502 0
M  V30 30 Pb -1.5356 4.8668 -2.9968 0
M  V30 31 Pd -2.8476 -0.0799 -5.9929 0
M  V30 32 Pb -3.6261 -0.2932 -5.4012 0
M  V30 33 Pb -3.0256 0.9070 -5.9295 0
M  V30 34 Pb -2.6885 -1.0568 -6.0859 0
M  V30 35 Pb -2.0452 0.0866 -6.5968 0
M  V30 36 Pd -0.4012 -5.6581 3.2202 0
M  V30 37 Pb -0.0465 -5.4761 2.3055 0
M  V30 38 Pb -0.7777 -5.7230 4.1452 0
M  V30 39 Pb 0.5342 -5.5041 3.5404 0
M  V30 40 Pb -1.3378 -5.7061 2.8779 0
M  V30 41 Pd -1.8644 -0.7241 7.9748 0
M  V30 42 Pb -1.3261 0.1127 7.7694 0
M  V30 43 Pb -2.5673 -0.4862 7.2998 0
M  V30 44 Pb -2.2242 -1.6530 8.0338 0
M  V30 45 Pb -1.2068 -0.9532 8.6857 0
M  V30 46 Ag -6.0356 -1.2040 -0.6379 0
M  V30 47 Fe -5.1300 -0.8690 -2.8084 0
M  V30 48 Ag -4.1935 -0.5175 -4.9632 0
M  V30 49 Ag 3.0829 -1.9411 -0.2309 0
M  V30 50 Fe 1.6661 -3.6221 0.6674 0
M  V30 51 Ag 0.2594 -5.2588 1.6583 0
M  V30 52 Ag 2.7175 4.9587 -0.5815 0
M  V30 53 Fe 0.3838 5.2099 -0.3881 0
M  V30 54 Ag -1.8579 5.1267 -1.1067 0
M  V30 55 Ag 1.9787 -2.6030 -7.0994 0
M  V30 56 Fe -0.3380 -2.6667 -6.6797 0
M  V30 57 Ag -2.4534 -1.7514 -6.1924 0
M  V30 58 Ag 3.3948 -0.3895 7.1262 0
M  V30 59 Fe 1.6727 -0.8915 8.6459 0
M  V30 60 Ag -0.6222 -1.0827 9.1217 0
M  V30 61 Ag 3.6232 0.4227 -6.8161 0
M  V30 62 Fe 3.8954 2.1732 -5.2391 0
M  V30 63 Ag 4.0682 3.8449 -3.5654 0
M  V30 64 Ag 3.6582 -1.4221 4.9423 0
M  V30 65 Fe 2.6072 -3.4531 4.3030 0
M  V30 66 Ag 1.2393 -5.2965 3.6941 0
M  V30 67 Ag -6.0835 0.7225 0.5954 0
M  V30 68 Fe -5.0956 2.4901 -0.6399 0
M  V30 69 Ag -3.9611 4.1517 -1.8964 0
M  V30 70 Ag -5.4491 -2.6131 1.3767 0
M  V30 71 Fe -3.7992 -4.2021 1.9997 0
M  V30 72 Ag -2.0485 -5.6690 2.6465 0
M  V30 73 Ag -1.1218 -5.6832 4.8114 0
M  V30 74 Fe -1.8268 -4.1704 6.5008 0
M  V30 75 Ag -2.3555 -2.3876 7.9773 0
M  V30 76 Ag -5.5568 -0.4670 2.7463 0
M  V30 77 Fe -4.3030 -0.4257 4.7668 0
M  V30 78 Ag -3.1321 -0.3104 6.8336 0
M  V30 79 Ag 4.1837 -1.7187 -6.0782 0
M  V30 80 Fe 4.7378 -1.5520 -3.7763 0
M  V30 81 Ag 4.9838 -1.2082 -1.4406 0
M  V30 82 Ba 2.4039 0.5353 3.9308 0
M  V30 83 Ga 2.7471 0.3473 2.5061 0
M  V30 84 Ba 3.0089 0.2177 1.0578 0
M  V30 85 Ba 4.8219 3.6396 -1.1561 0
M  V30 86 Ga 4.9844 2.2757 -0.6128 0
M  V30 87 Ba 5.1213 0.9053 -0.0791 0
M  V30 88 Ba 1.7819 1.1385 6.2669 0
M  V30 89 Ga 0.4577 0.9011 6.9266 0
M  V30 90 Ba -0.8702 0.7041 7.5924 0
M  V30 91 Ba 1.4006 -0.3574 -7.6981 0
M  V30 92 Ga -0.0292 -0.1157 -7.3319 0
M  V30 93 Ba -1.4701 0.2042 -7.0912 0
M  V30 94 Ba 2.0996 5.0430 -2.9105 0
M  V30 95 Ga 0.6097 5.0234 -3.0216 0
M  V30 96 Ba -0.8614 5.1067 -3.2691 0
M  V30 97 Ba -2.9645 4.0640 -4.2349 0
M  V30 98 Ga -3.0461 2.8260 -5.0425 0
M  V30 99 Ba -3.1709 1.6475 -5.9296 0
M  V30 END ATOM
M  V30 BEGIN BOND
M  V30 1 1 1 2
M  V30 2 1 1 3
M  V30 3 1 1 4
M  V30 4 1 1 5
M  V30 5 1 6 7
M  V30 6 1 6 8
M  V30 7 1 6 9
M  V30 8 1 6 10
M  V30 9 1 11 12
M  V30 10 1 11 13
M  V30 11 1 11 14
M  V30 12 1 11 15
M  V30 13 1 16 17
M  V30 14 1 16 18
M  V30 15 1 16 19
M  V30 16 1 16 20
M  V30 17 1 21 22
M  V30 18 1 21 23
M  V30 19 1 21 24
M  V30 20 1 21 25
M  V30 21 1 26 27
M  V30 22 1 26 28
M  V30 23 1 26 29
M  V30 24 1 26 30
M  V30 25 1 31 32
M  V30 26 1 31 33
M  V30 27 1 31 34
M  V30 28 1 31 35
M  V30 29 1 36 37
M  V30 30 1 36 38
M  V30 31 1 36 39
M  V30 32 1 36 40
M  V30 33 1 41 42
M  V30 34 1 41 43
M  V30 35 1 41 44
M  V30 36 1 41 45
M  V30 37 1 46 47
M  V30 38 1 47 48
M  V30 39 1 49 50
M  V30 40 1 50 51
M  V30 41 1 52 53
M  V30 42 1 53 54
M  V30 43 1 55 56
M  V30 44 1 56 57
M  V30 45 1 58 59
M  V30 46 1 59 60
M  V30 47 1 61 62
M  V30 48 1 62 63
M  V30 49 1 64 65
M  V30 50 1 65 66
M  V30 51 1 67 68
M  V30 52 1 68 69
M  V30 53 1 70 71
M  V30 54 1 71 72
M  V30 55 1 73 74
M  V30 56 1 74 75
M  V30 57 1 76 77
M  V30 58 1 77 78
M  V30 59 1 79 80
M  V30 60 1 80 81
M  V30 61 1 82 83
M  V30 62 1 83 84
M  V30 63 1 85 86
M  V30 64 1 86 87
M  V30 65 1 88 89
M  V30 66 1 89 90
M  V30 67 1 91 92
M  V30 68 1 92 93
M  V30 69 1 94 95
M  V30 70 1 95 96
M  V30 71 1 97 98
M  V30 72 1 98 99
M  V30 73 1 2 46
M  V30 74 1 3 76
M  V30 75 1 4 67
M  V30 76 1 5 70
M  V30 77 1 7 82
M  V30 78 1 8 88
M  V30 79 1 9 64
M  V30 80 1 10 58
M  V30 81 1 12 91
M  V30 82 1 13 79
M  V30 83 1 14 61
M  V30 84 1 15 55
M  V30 85 1 17 63
M  V30 86 1 18 52
M  V30 87 1 19 85
M  V30 88 1 20 94
M  V30 89 1 22 84
M  V30 90 1 23 81
M  V30 91 1 24 87
M  V30 92 1 25 49
M  V30 93 1 27 54
M  V30 94 1 28 97
M  V30 95 1 29 69
M  V30 96 1 30 96
M  V30 97 1 32 48
M  V30 98 1 33 99
M  V30 99 1 34 57
M  V30 100 1 35 93
M  V30 101 1 37 51
M  V30 102 1 38 73
M  V30 103 1 39 66
M  V30 104 1 40 72
M  V30 105 1 42 90
M  V30 106 1 43 78
M  V30 107 1 44 75
M  V30 108 1 45 60
M  V30 END BOND
M  V30 END CTAB
M  END

$$$$
