
     RDKit          3D

  0  0  0  0  0  0  0  0  0  0999 V3000
M  V30 BEGIN CTAB
M  V30 COUNTS 99 108 0 0 0
M  V30 BEGIN ATOM
M  V30 1 Pd 2.8821 0.3777 -0.5647 0
M  V30 2 Pb 3.5102 -0.3936 -0.6871 0
M  V30 3 Pb 3.5888 0.9033 -0.0888 0
M  V30 4 Pb 2.8973 -0.2931 0.1799 0
M  V30 5 Pb 2.4854 1.2206 -0.9255 0
M  V30 6 Pd 6.0845 4.9745 -1.2450 0
M  V30 7 Pb 6.7145 5.4188 -0.6060 0
M  V30 8 Pb 5.8893 4.2422 -0.5900 0
M  V30 9 Pb 6.2845 5.7103 -1.8887 0
M  V30 10 Pb 5.2772 4.7682 -1.8087 0
M  V30 11 Pd 3.0779 8.5850 -1.7198 0
M  V30 12 Pb 3.5242 9.2239 -1.0914 0
M  V30 13 Pb 2.2562 8.5250 -1.1545 0
M  V30 14 Pb 2.8254 7.7444 -2.2137 0
M  V30 15 Pb 3.9083 8.6044 -2.2703 0
M  V30 16 Pd -5.5872 -0.1876 3.0994 0
M  V30 17 Pb -5.7466 -1.1127 3.4483 0
M  V30 18 Pb -5.3419 0.7373 2.7586 0
M  V30 19 Pb -6.0252 -0.4109 2.2266 0
M  V30 20 Pb -5.1445 0.0675 3.9515 0
M  V30 21 Pd -0.0064 -3.8806 0.4085 0
M  V30 22 Pb -0.5128 -4.3500 -0.3310 0
M  V30 23 Pb -0.3275 -2.9866 0.1258 0
M  V30 24 Pb 0.6173 -3.4159 1.0358 0
M  V30 25 Pb 0.2120 -4.7435 0.8739 0
M  V30 26 Pd -2.9852 -4.8072 2.3358 0
M  V30 27 Pb -3.7291 -4.5323 2.9484 0
M  V30 28 Pb -3.4127 -5.7022 2.2327 0
M  V30 29 Pb -2.7452 -3.8370 2.2781 0
M  V30 30 Pb -2.2885 -5.1160 1.6486 0
M  V30 31 Pd 2.1045 -4.7535 -1.1358 0
M  V30 32 Pb 2.5794 -5.5236 -0.7066 0
M  V30 33 Pb 1.2140 -5.1898 -0.8759 0
M  V30 34 Pb 2.9649 -4.2642 -1.2679 0
M  V30 35 Pb 1.6088 -4.0001 -1.5679 0
M  V30 36 Pd -4.5004 -4.0019 -2.9875 0
M  V30 37 Pb -5.2633 -3.3877 -2.8008 0
M  V30 38 Pb -3.8778 -3.2464 -3.1694 0
M  V30 39 Pb -5.0344 -4.7974 -2.7053 0
M  V30 40 Pb -3.6789 -4.5727 -2.9549 0
M  V30 41 Pd -1.2548 3.3307 1.0727 0
M  V30 42 Pb -0.6284 3.3817 0.2945 0
M  V30 43 Pb -1.3686 3.3117 2.0600 0
M  V30 44 Pb -1.2523 4.3289 1.0936 0
M  V30 45 Pb -2.2099 3.2558 1.4136 0
M  V30 46 Ag 6.9691 5.9715 -0.1716 0
M  V30 47 Fe 5.8556 8.0517 0.0136 0
M  V30 48 Ag 4.0501 9.4487 -0.6101 0
M  V30 49 Ag 1.1929 -3.4669 -1.8916 0
M  V30 50 Fe -0.9951 -2.9282 -2.6328 0
M  V30 51 Ag -3.2874 -2.7944 -3.2254 0
M  V30 52 Ag -6.3334 -0.5629 1.5581 0
M  V30 53 Fe -6.1706 -1.6925 -0.5246 0
M  V30 54 Ag -5.7752 -2.9230 -2.5165 0
M  V30 55 Ag -3.8313 -6.2461 1.9460 0
M  V30 56 Fe -4.8224 -6.2580 -0.1999 0
M  V30 57 Ag -5.2915 -5.4034 -2.3540 0
M  V30 58 Ag 1.6409 8.4274 -0.7385 0
M  V30 59 Fe 0.1621 6.8337 0.2131 0
M  V30 60 Ag -1.1810 5.0734 1.0675 0
M  V30 61 Ag -4.7189 0.3908 4.4614 0
M  V30 62 Fe -2.9591 1.9096 4.0862 0
M  V30 63 Ag -1.4896 3.2135 2.7855 0
M  V30 64 Ba -0.7988 -4.7499 -0.9138 0
M  V30 65 Ga -1.9374 -4.8255 -1.8636 0
M  V30 66 Ba -3.0450 -4.9621 -2.8433 0
M  V30 67 Ba 6.3905 6.2872 -2.3518 0
M  V30 68 Ga 5.5282 7.4567 -2.5682 0
M  V30 69 Ba 4.5468 8.5465 -2.6517 0
M  V30 70 Ba 0.4460 -5.3722 1.2160 0
M  V30 71 Ga 1.6429 -6.0210 0.7149 0
M  V30 72 Ba 2.7197 -6.0890 -0.2476 0
M  V30 73 Ba 4.6324 4.7644 -2.2090 0
M  V30 74 Ga 3.6521 5.8699 -2.4064 0
M  V30 75 Ba 2.7542 7.0540 -2.5227 0
M  V30 76 Ba 3.9785 -0.9639 -0.8333 0
M  V30 77 Ga 3.8104 -2.4106 -1.0729 0
M  V30 78 Ba 3.5888 -3.8516 -1.3021 0
M  V30 79 Ba -0.6880 -2.3471 0.1769 0
M  V30 80 Ga -1.7593 -2.4967 1.1545 0
M  V30 81 Ba -2.6610 -3.1038 2.1320 0
M  V30 82 Ba -5.8209 -1.8063 3.7283 0
M  V30 83 Ga -5.0723 -3.0689 3.5560 0
M  V30 84 Ba -4.3139 -4.3241 3.3735 0
M  V30 85 Ba 2.1623 1.8433 -1.1874 0
M  V30 86 Ga 1.0076 2.6456 -0.7439 0
M  V30 87 Ba -0.1505 3.4323 -0.2816 0
M  V30 88 Ba -5.1617 1.4515 2.5498 0
M  V30 89 Ga -4.0059 2.2768 2.0843 0
M  V30 90 Ba -2.9479 3.2238 1.6180 0
M  V30 91 Ba -1.8608 -5.4612 1.1011 0
M  V30 92 Ga -0.6233 -5.4531 0.2544 0
M  V30 93 Ba 0.5569 -5.5470 -0.6734 0
M  V30 94 Ba 4.1134 1.2878 0.2866 0
M  V30 95 Ga 4.9285 2.5006 0.0736 0
M  V30 96 Ba 5.7715 3.7034 -0.0793 0
M  V30 97 Ba 2.8608 -0.7599 0.7691 0
M  V30 98 Ga 2.0123 -1.9144 1.1270 0
M  V30 99 Ba 1.1425 -3.0659 1.4402 0
M  V30 END ATOM
M  V30 BEGIN BOND
M  V30 1 1 1 2
M  V30 2 1 1 3
M  V30 3 1 1 4
M  V30 4 1 1 5
M  V30 5 1 6 7
M  V30 6 1 6 8
M  V30 7 1 6 9
M  V30 8 1 6 10
M  V30 9 1 11 12
M  V30 10 1 11 13
M  V30 11 1 11 14
M  V30 12 1 11 15
M  V30 13 1 16 17
M  V30 14 1 16 18
M  V30 15 1 16 19
M  V30 16 1 16 20
M  V30 17 1 21 22
M  V30 18 1 21 23
M  V30 19 1 21 24
M  V30 20 1 21 25
M  V30 21 1 26 27
M  V30 22 1 26 28
M  V30 23 1 26 29
M  V30 24 1 26 30
M  V30 25 1 31 32
M  V30 26 1 31 33
M  V30 27 1 31 34
M  V30 28 1 31 35
M  V30 29 1 36 37
M  V30 30 1 36 38
M  V30 31 1 36 39
M  V30 32 1 36 40
M  V30 33 1 41 42
M  V30 34 1 41 43
M  V30 35 1 41 44
M  V30 36 1 41 45
M  V30 37 1 46 47
M  V30 38 1 47 48
M  V30 39 1 49 50
M  V30 40 1 50 51
M  V30 41 1 52 53
M  V30 42 1 53 54
M  V30 43 1 55 56
M  V30 44 1 56 57
M  V30 45 1 58 59
M  V30 46 1 59 60
M  V30 47 1 61 62
M  V30 48 1 62 63
M  V30 49 1 64 65
M  V30 50 1 65 66
M  V30 51 1 67 68
M  V30 52 1 68 69
M  V30 53 1 70 71
M  V30 54 1 71 72
M  V30 55 1 73 74
M  V30 56 1 74 75
M  V30 57 1 76 77
M  V30 58 1 77 78
M  V30 59 1 79 80
M  V30 60 1 80 81
M  V30 61 1 82 83
M  V30 62 1 83 84
M  V30 63 1 85 86
M  V30 64 1 86 87
M  V30 65 1 88 89
M  V30 66 1 89 90
M  V30 67 1 91 92
M  V30 68 1 92 93
M  V30 69 1 94 95
M  V30 70 1 95 96
M  V30 71 1 97 98
M  V30 72 1 98 99
M  V30 73 1 2 76
M  V30 74 1 3 94
M  V30 75 1 4 97
M  V30 76 1 5 85
M  V30 77 1 7 46
M  V30 78 1 8 96
M  V30 79 1 9 67
M  V30 80 1 10 73
M  V30 81 1 12 48
M  V30 82 1 13 58
M  V30 83 1 14 75
M  V30 84 1 15 69
M  V30 85 1 17 82
M  V30 86 1 18 88
M  V30 87 1 19 52
M  V30 88 1 20 61
M  V30 89 1 22 64
M  V30 90 1 23 79
M  V30 91 1 24 99
M  V30 92 1 25 70
M  V30 93 1 27 84
M  V30 94 1 28 55
M  V30 95 1 29 81
M  V30 96 1 30 91
M  V30 97 1 32 72
M  V30 98 1 33 93
M  V30 99 1 34 78
M  V30 100 1 35 49
M  V30 101 1 37 54
M  V30 102 1 38 51
M  V30 103 1 39 57
M  V30 104 1 40 66
M  V30 105 1 42 87
M  V30 106 1 43 63
M  V30 107 1 44 60
M  V30 108 1 45 90
M  V30 END BOND
M  V30 END CTAB
M  END

$$$$
