
     RDKit          3D

  0  0  0  0  0  0  0  0  0  0999 V3000
M  V30 BEGIN CTAB
M  V30 COUNTS 99 108 0 0 0
M  V30 BEGIN ATOM
M  V30 1 Pd -1.9255 4.1491 -4.1602 0
M  V30 2 Pb -1.0647 4.6848 -4.0950 0
M  V30 3 Pb -2.3219 4.7236 -3.4522 0
M  V30 4 Pb -1.5383 3.6085 -4.8975 0
M  V30 5 Pb -2.7612 3.5679 -4.1771 0
M  V30 6 Pd 1.9141 -1.9428 2.8680 0
M  V30 7 Pb 1.7617 -2.4897 2.0196 0
M  V30 8 Pb 2.1237 -1.3923 3.6787 0
M  V30 9 Pb 2.8129 -2.3489 3.0487 0
M  V30 10 Pb 1.0791 -1.4160 2.7474 0
M  V30 11 Pd -0.8010 -4.5136 -2.1021 0
M  V30 12 Pb -0.5898 -3.6295 -2.5048 0
M  V30 13 Pb -0.9377 -5.3899 -1.6512 0
M  V30 14 Pb -0.0473 -4.3333 -1.4467 0
M  V30 15 Pb -1.5564 -4.6840 -2.7335 0
M  V30 16 Pd 0.3645 -3.2500 3.5586 0
M  V30 17 Pb 1.3143 -3.2559 3.2026 0
M  V30 18 Pb 0.3539 -4.2346 3.4113 0
M  V30 19 Pb -0.6221 -3.3172 3.7390 0
M  V30 20 Pb 0.2686 -2.2586 3.7089 0
M  V30 21 Pd 1.3593 2.7283 3.3310 0
M  V30 22 Pb 0.7678 3.0002 2.5706 0
M  V30 23 Pb 1.9219 2.3629 4.0638 0
M  V30 24 Pb 1.9520 3.5254 3.2087 0
M  V30 25 Pb 0.7611 1.9443 3.5132 0
M  V30 26 Pd 4.6604 -0.8416 0.2561 0
M  V30 27 Pb 4.2374 -1.6783 0.6296 0
M  V30 28 Pb 3.9600 -0.7182 -0.4442 0
M  V30 29 Pb 5.3203 -1.0202 0.9763 0
M  V30 30 Pb 5.0780 0.0079 -0.0642 0
M  V30 31 Pd -4.4326 -1.3288 -4.2622 0
M  V30 32 Pb -3.8300 -1.2230 -5.0441 0
M  V30 33 Pb -5.0146 -1.4558 -3.4571 0
M  V30 34 Pb -4.3095 -2.3180 -4.3208 0
M  V30 35 Pb -4.5308 -0.3165 -4.2110 0
M  V30 36 Pd -3.6030 -1.0452 1.0583 0
M  V30 37 Pb -2.8358 -0.7174 1.5975 0
M  V30 38 Pb -3.6728 -1.8216 1.6883 0
M  V30 39 Pb -3.4602 -0.2149 0.5239 0
M  V30 40 Pb -4.3826 -1.3307 0.4992 0
M  V30 41 Pd 2.4306 6.1103 -0.6587 0
M  V30 42 Pb 3.2338 5.5675 -0.9025 0
M  V30 43 Pb 2.7533 6.1070 0.2856 0
M  V30 44 Pb 2.0658 6.0643 -1.6053 0
M  V30 45 Pb 1.6083 6.5955 -0.3818 0
M  V30 46 Ag -0.3014 -2.9699 -2.6910 0
M  V30 47 Fe 1.5271 -1.6523 -1.9615 0
M  V30 48 Ag 3.4258 -0.6462 -0.9626 0
M  V30 49 Ag -1.3487 3.1218 -5.4209 0
M  V30 50 Fe -2.0847 0.9346 -5.8879 0
M  V30 51 Ag -3.3390 -1.0310 -5.5626 0
M  V30 52 Ag -2.4792 5.1951 -2.9028 0
M  V30 53 Fe -1.1066 6.2933 -1.3336 0
M  V30 54 Ag 0.9204 6.8440 -0.2663 0
M  V30 55 Ag 0.2834 3.0912 2.0044 0
M  V30 56 Fe -1.5137 1.9542 0.9493 0
M  V30 57 Ag -3.2172 0.4461 0.2728 0
M  V30 58 Ag -0.9253 -5.9495 -1.1654 0
M  V30 59 Fe -0.3672 -5.9033 1.1262 0
M  V30 60 Ag 0.2519 -4.9357 3.1876 0
M  V30 61 Ag 5.3118 0.6686 -0.3295 0
M  V30 62 Fe 4.6705 2.9207 -0.7219 0
M  V30 63 Ag 3.8228 5.1186 -1.0186 0
M  V30 64 Ba 2.3889 4.1327 3.1430 0
M  V30 65 Ga 2.6955 5.1034 2.0765 0
M  V30 66 Ba 2.9874 6.0614 0.9946 0
M  V30 67 Ba -0.4107 5.0822 -4.0760 0
M  V30 68 Ga 0.6618 5.5343 -3.1396 0
M  V30 69 Ba 1.8005 6.0523 -2.3230 0
M  V30 70 Ba -5.4376 -1.5829 -2.8491 0
M  V30 71 Ga -5.2072 -1.5474 -1.3907 0
M  V30 72 Ba -4.9698 -1.5097 0.0665 0
M  V30 73 Ba 0.5088 -0.9361 2.7532 0
M  V30 74 Ga -0.8844 -0.7462 2.3273 0
M  V30 75 Ba -2.2705 -0.4122 1.9716 0
M  V30 76 Ba -1.3702 -3.4126 3.7904 0
M  V30 77 Ga -2.5292 -2.8938 3.0255 0
M  V30 78 Ba -3.6536 -2.3429 2.2320 0
M  V30 79 Ba 1.9822 -3.4077 2.8573 0
M  V30 80 Ga 2.9840 -2.8273 1.9132 0
M  V30 81 Ba 4.0313 -2.3123 0.9945 0
M  V30 82 Ba -2.1350 -4.8093 -3.1927 0
M  V30 83 Ga -3.1710 -3.9481 -3.7889 0
M  V30 84 Ba -4.1906 -3.0555 -4.3670 0
M  V30 85 Ba 1.7721 -2.9443 1.4001 0
M  V30 86 Ga 1.0490 -3.5248 0.2306 0
M  V30 87 Ba 0.5564 -4.2294 -0.9900 0
M  V30 88 Ba 2.3496 -0.9723 4.2606 0
M  V30 89 Ga 2.3520 0.4806 4.4997 0
M  V30 90 Ba 2.2627 1.9476 4.5779 0
M  V30 91 Ba 0.0160 -1.5579 3.8528 0
M  V30 92 Ga 0.2567 -0.0991 3.7504 0
M  V30 93 Ba 0.3078 1.3807 3.7224 0
M  V30 94 Ba 3.5303 -2.5143 3.2080 0
M  V30 95 Ga 4.7129 -1.9882 2.5091 0
M  V30 96 Ba 5.6346 -1.3283 1.5741 0
M  V30 97 Ba -3.4117 3.1606 -4.1708 0
M  V30 98 Ga -3.9467 1.7635 -4.1830 0
M  V30 99 Ba -4.6480 0.4420 -4.1891 0
M  V30 END ATOM
M  V30 BEGIN BOND
M  V30 1 1 1 2
M  V30 2 1 1 3
M  V30 3 1 1 4
M  V30 4 1 1 5
M  V30 5 1 6 7
M  V30 6 1 6 8
M  V30 7 1 6 9
M  V30 8 1 6 10
M  V30 9 1 11 12
M  V30 10 1 11 13
M  V30 11 1 11 14
M  V30 12 1 11 15
M  V30 13 1 16 17
M  V30 14 1 16 18
M  V30 15 1 16 19
M  V30 16 1 16 20
M  V30 17 1 21 22
M  V30 18 1 21 23
M  V30 19 1 21 24
M  V30 20 1 21 25
M  V30 21 1 26 27
M  V30 22 1 26 28
M  V30 23 1 26 29
M  V30 24 1 26 30
M  V30 25 1 31 32
M  V30 26 1 31 33
M  V30 27 1 31 34
M  V30 28 1 31 35
M  V30 29 1 36 37
M  V30 30 1 36 38
M  V30 31 1 36 39
M  V30 32 1 36 40
M  V30 33 1 41 42
M  V30 34 1 41 43
M  V30 35 1 41 44
M  V30 36 1 41 45
M  V30 37 1 46 47
M  V30 38 1 47 48
M  V30 39 1 49 50
M  V30 40 1 50 51
M  V30 41 1 52 53
M  V30 42 1 53 54
M  V30 43 1 55 56
M  V30 44 1 56 57
M  V30 45 1 58 59
M  V30 46 1 59 60
M  V30 47 1 61 62
M  V30 48 1 62 63
M  V30 49 1 64 65
M  V30 50 1 65 66
M  V30 51 1 67 68
M  V30 52 1 68 69
M  V30 53 1 70 71
M  V30 54 1 71 72
M  V30 55 1 73 74
M  V30 56 1 74 75
M  V30 57 1 76 77
M  V30 58 1 77 78
M  V30 59 1 79 80
M  V30 60 1 80 81
M  V30 61 1 82 83
M  V30 62 1 83 84
M  V30 63 1 85 86
M  V30 64 1 86 87
M  V30 65 1 88 89
M  V30 66 1 89 90
M  V30 67 1 91 92
M  V30 68 1 92 93
M  V30 69 1 94 95
M  V30 70 1 95 96
M  V30 71 1 97 98
M  V30 72 1 98 99
M  V30 73 1 2 67
M  V30 74 1 3 52
M  V30 75 1 4 49
M  V30 76 1 5 97
M  V30 77 1 7 85
M  V30 78 1 8 88
M  V30 79 1 9 94
M  V30 80 1 10 73
M  V30 81 1 12 46
M  V30 82 1 13 58
M  V30 83 1 14 87
M  V30 84 1 15 82
M  V30 85 1 17 79
M  V30 86 1 18 60
M  V30 87 1 19 76
M  V30 88 1 20 91
M  V30 89 1 22 55
M  V30 90 1 23 90
M  V30 91 1 24 64
M  V30 92 1 25 93
M  V30 93 1 27 81
M  V30 94 1 28 48
M  V30 95 1 29 96
M  V30 96 1 30 61
M  V30 97 1 32 51
M  V30 98 1 33 70
M  V30 99 1 34 84
M  V30 100 1 35 99
M  V30 101 1 37 75
M  V30 102 1 38 78
M  V30 103 1 39 57
M  V30 104 1 40 72
M  V30 105 1 42 63
M  V30 106 1 43 66
M  V30 107 1 44 69
M  V30 108 1 45 54
M  V30 END BOND
M  V30 END CTAB
M  END

$$$$
