
     RDKit          3D

  0  0  0  0  0  0  0  0  0  0999 V3000
M  V30 BEGIN CTAB
M  V30 COUNTS 99 108 0 0 0
M  V30 BEGIN ATOM
M  V30 1 Pd 0.2463 1.8881 -7.0781 0
M  V30 2 Pb 0.4485 2.8595 -7.1820 0
M  V30 3 Pb 1.2317 1.7154 -7.0679 0
M  V30 4 Pb 0.0364 0.9066 -6.9128 0
M  V30 5 Pb -0.7255 2.0913 -7.0405 0
M  V30 6 Pd -2.4761 -2.2901 -3.7080 0
M  V30 7 Pb -1.8568 -3.0393 -3.5103 0
M  V30 8 Pb -1.9091 -2.0350 -4.5144 0
M  V30 9 Pb -3.1173 -1.5677 -3.9405 0
M  V30 10 Pb -3.0335 -2.5226 -2.8854 0
M  V30 11 Pd -1.5569 4.1879 1.9206 0
M  V30 12 Pb -1.0298 3.5565 2.4959 0
M  V30 13 Pb -2.3628 3.6125 2.0368 0
M  V30 14 Pb -2.1190 4.8311 1.4169 0
M  V30 15 Pb -0.7311 4.7509 1.7070 0
M  V30 16 Pd -3.4804 -4.7561 1.8462 0
M  V30 17 Pb -4.1244 -4.2368 2.4100 0
M  V30 18 Pb -3.2400 -5.2975 2.6508 0
M  V30 19 Pb -2.8091 -5.2602 1.3178 0
M  V30 20 Pb -3.7361 -4.2203 1.0166 0
M  V30 21 Pd 4.1460 1.9758 -3.2050 0
M  V30 22 Pb 4.3526 2.9555 -3.2249 0
M  V30 23 Pb 4.2449 1.9988 -2.2130 0
M  V30 24 Pb 4.0786 1.9094 -4.2033 0
M  V30 25 Pb 3.9750 0.9928 -3.1228 0
M  V30 26 Pd -2.8111 -0.3572 4.6188 0
M  V30 27 Pb -3.6006 -0.9707 4.5876 0
M  V30 28 Pb -3.2537 0.2067 3.9266 0
M  V30 29 Pb -2.4195 -0.8887 5.3733 0
M  V30 30 Pb -2.0022 0.2367 4.5780 0
M  V30 31 Pd 0.4819 -4.6863 5.6041 0
M  V30 32 Pb 1.0304 -5.2407 4.9771 0
M  V30 33 Pb 1.2948 -4.1444 5.8083 0
M  V30 34 Pb -0.0647 -4.0806 6.1802 0
M  V30 35 Pb -0.3245 -5.2449 5.4138 0
M  V30 36 Pd 3.8917 -2.8859 2.3077 0
M  V30 37 Pb 3.9377 -2.7991 3.3001 0
M  V30 38 Pb 3.6374 -3.8474 2.4202 0
M  V30 39 Pb 3.8135 -2.9348 1.3109 0
M  V30 40 Pb 4.1030 -1.9171 2.2017 0
M  V30 41 Pd 1.6413 6.9154 -2.3039 0
M  V30 42 Pb 2.5582 6.5198 -2.3791 0
M  V30 43 Pb 1.6419 7.0116 -3.2958 0
M  V30 44 Pb 1.5681 6.7087 -1.3065 0
M  V30 45 Pb 0.7359 7.3199 -2.2826 0
M  V30 46 Ag 4.3312 1.9514 -1.4726 0
M  V30 47 Fe 4.3077 0.4682 0.3773 0
M  V30 48 Ag 4.2284 -1.1931 2.0673 0
M  V30 49 Ag -1.4737 -3.6229 -3.2682 0
M  V30 50 Fe -1.5677 -4.8948 -1.2893 0
M  V30 51 Ag -2.3073 -5.5375 0.8515 0
M  V30 52 Ag 3.8723 0.2611 -2.9866 0
M  V30 53 Fe 3.7910 -1.3977 -1.2866 0
M  V30 54 Ag 3.7503 -2.8886 0.5638 0
M  V30 55 Ag -2.4405 5.3484 0.9996 0
M  V30 56 Fe -1.6220 6.7242 -0.7223 0
M  V30 57 Ag 0.0323 7.5222 -2.1896 0
M  V30 58 Ag -1.4505 2.1425 -6.9018 0
M  V30 59 Fe -2.8904 0.8070 -5.6007 0
M  V30 60 Ag -3.4993 -0.9924 -4.2072 0
M  V30 61 Ag 0.6193 3.5870 -7.1851 0
M  V30 62 Fe 1.1334 5.4059 -5.7547 0
M  V30 63 Ag 1.6005 6.9741 -4.0398 0
M  V30 64 Ba -2.9627 3.1687 2.0735 0
M  V30 65 Ga -3.2886 1.9083 2.7577 0
M  V30 66 Ba -3.6128 0.6481 3.4430 0
M  V30 67 Ba 1.9180 -3.7518 5.9384 0
M  V30 68 Ga 2.9496 -3.2266 5.0306 0
M  V30 69 Ba 3.9276 -2.7408 4.0449 0
M  V30 70 Ba 4.5433 3.6801 -3.1642 0
M  V30 71 Ga 3.8708 4.9544 -2.8370 0
M  V30 72 Ba 3.2490 6.2553 -2.5139 0
M  V30 73 Ba -3.0666 -5.7085 3.2526 0
M  V30 74 Ga -1.9948 -5.6852 4.2640 0
M  V30 75 Ba -0.9270 -5.6694 5.2796 0
M  V30 76 Ba -3.5053 -2.6490 -2.2908 0
M  V30 77 Ga -3.6423 -3.2749 -0.9375 0
M  V30 78 Ba -3.9932 -3.8201 0.4122 0
M  V30 79 Ba -2.1700 -1.2690 5.9730 0
M  V30 80 Ga -1.3158 -2.4367 6.2658 0
M  V30 81 Ba -0.4664 -3.5996 6.5903 0
M  V30 82 Ba -0.1038 5.1763 1.5613 0
M  V30 83 Ga 0.6540 5.8407 0.4489 0
M  V30 84 Ba 1.5149 6.5536 -0.5530 0
M  V30 85 Ba -4.5803 -3.8535 2.8678 0
M  V30 86 Ga -4.4067 -2.6447 3.6975 0
M  V30 87 Ba -4.1875 -1.4320 4.5105 0
M  V30 88 Ba -0.1098 0.1604 -6.8147 0
M  V30 89 Ga -0.8230 -0.8011 -5.9182 0
M  V30 90 Ba -1.4754 -1.8931 -5.1318 0
M  V30 91 Ba -0.6646 3.0912 2.9636 0
M  V30 92 Ga -1.0298 1.8799 3.7334 0
M  V30 93 Ba -1.3876 0.6684 4.5064 0
M  V30 94 Ba 1.9781 1.6372 -7.0491 0
M  V30 95 Ga 3.0054 1.7235 -5.9907 0
M  V30 96 Ba 4.0494 1.8070 -4.9485 0
M  V30 97 Ba 1.4578 -5.6092 4.4820 0
M  V30 98 Ga 2.4480 -5.1251 3.5000 0
M  V30 99 Ba 3.4214 -4.5553 2.5474 0
M  V30 END ATOM
M  V30 BEGIN BOND
M  V30 1 1 1 2
M  V30 2 1 1 3
M  V30 3 1 1 4
M  V30 4 1 1 5
M  V30 5 1 6 7
M  V30 6 1 6 8
M  V30 7 1 6 9
M  V30 8 1 6 10
M  V30 9 1 11 12
M  V30 10 1 11 13
M  V30 11 1 11 14
M  V30 12 1 11 15
M  V30 13 1 16 17
M  V30 14 1 16 18
M  V30 15 1 16 19
M  V30 16 1 16 20
M  V30 17 1 21 22
M  V30 18 1 21 23
M  V30 19 1 21 24
M  V30 20 1 21 25
M  V30 21 1 26 27
M  V30 22 1 26 28
M  V30 23 1 26 29
M  V30 24 1 26 30
M  V30 25 1 31 32
M  V30 26 1 31 33
M  V30 27 1 31 34
M  V30 28 1 31 35
M  V30 29 1 36 37
M  V30 30 1 36 38
M  V30 31 1 36 39
M  V30 32 1 36 40
M  V30 33 1 41 42
M  V30 34 1 41 43
M  V30 35 1 41 44
M  V30 36 1 41 45
M  V30 37 1 46 47
M  V30 38 1 47 48
M  V30 39 1 49 50
M  V30 40 1 50 51
M  V30 41 1 52 53
M  V30 42 1 53 54
M  V30 43 1 55 56
M  V30 44 1 56 57
M  V30 45 1 58 59
M  V30 46 1 59 60
M  V30 47 1 61 62
M  V30 48 1 62 63
M  V30 49 1 64 65
M  V30 50 1 65 66
M  V30 51 1 67 68
M  V30 52 1 68 69
M  V30 53 1 70 71
M  V30 54 1 71 72
M  V30 55 1 73 74
M  V30 56 1 74 75
M  V30 57 1 76 77
M  V30 58 1 77 78
M  V30 59 1 79 80
M  V30 60 1 80 81
M  V30 61 1 82 83
M  V30 62 1 83 84
M  V30 63 1 85 86
M  V30 64 1 86 87
M  V30 65 1 88 89
M  V30 66 1 89 90
M  V30 67 1 91 92
M  V30 68 1 92 93
M  V30 69 1 94 95
M  V30 70 1 95 96
M  V30 71 1 97 98
M  V30 72 1 98 99
M  V30 73 1 2 61
M  V30 74 1 3 94
M  V30 75 1 4 88
M  V30 76 1 5 58
M  V30 77 1 7 49
M  V30 78 1 8 90
M  V30 79 1 9 60
M  V30 80 1 10 76
M  V30 81 1 12 91
M  V30 82 1 13 64
M  V30 83 1 14 55
M  V30 84 1 15 82
M  V30 85 1 17 85
M  V30 86 1 18 73
M  V30 87 1 19 51
M  V30 88 1 20 78
M  V30 89 1 22 70
M  V30 90 1 23 46
M  V30 91 1 24 96
M  V30 92 1 25 52
M  V30 93 1 27 87
M  V30 94 1 28 66
M  V30 95 1 29 79
M  V30 96 1 30 93
M  V30 97 1 32 97
M  V30 98 1 33 67
M  V30 99 1 34 81
M  V30 100 1 35 75
M  V30 101 1 37 69
M  V30 102 1 38 99
M  V30 103 1 39 54
M  V30 104 1 40 48
M  V30 105 1 42 72
M  V30 106 1 43 63
M  V30 107 1 44 84
M  V30 108 1 45 57
M  V30 END BOND
M  V30 END CTAB
M  END

$$$$
