
     RDKit          3D

  0  0  0  0  0  0  0  0  0  0999 V3000
M  V30 BEGIN CTAB
M  V30 COUNTS 99 108 0 0 0
M  V30 BEGIN ATOM
M  V30 1 Pd 0.5410 -3.8955 2.9067 0
M  V30 2 Pb 0.8518 -3.5320 3.7873 0
M  V30 3 Pb 0.2458 -4.2449 2.0183 0
M  V30 4 Pb 1.1437 -4.6918 2.9887 0
M  V30 5 Pb -0.0417 -3.0947 2.7754 0
M  V30 6 Pd 3.6143 -5.3712 -0.6638 0
M  V30 7 Pb 4.5991 -5.2981 -0.5176 0
M  V30 8 Pb 3.5079 -5.9065 0.1744 0
M  V30 9 Pb 2.6234 -5.3963 -0.7782 0
M  V30 10 Pb 3.7044 -4.7244 -1.4210 0
M  V30 11 Pd 1.7225 4.4569 -2.1961 0
M  V30 12 Pb 1.2910 5.1906 -1.6757 0
M  V30 13 Pb 2.0786 3.6534 -2.6741 0
M  V30 14 Pb 1.0016 4.5375 -2.8826 0
M  V30 15 Pb 2.3817 4.3460 -1.4532 0
M  V30 16 Pd -5.8077 3.3157 -3.4213 0
M  V30 17 Pb -6.7336 3.0504 -3.1699 0
M  V30 18 Pb -5.8679 4.0494 -2.7445 0
M  V30 19 Pb -5.7160 2.4637 -3.9679 0
M  V30 20 Pb -4.8977 3.6113 -3.7149 0
M  V30 21 Pd 2.8776 0.6950 4.3304 0
M  V30 22 Pb 1.9653 1.0965 4.4251 0
M  V30 23 Pb 3.8023 0.3231 4.2636 0
M  V30 24 Pb 3.1723 1.4485 3.7420 0
M  V30 25 Pb 2.5846 -0.0970 4.8686 0
M  V30 26 Pd 5.5621 -1.0726 0.2330 0
M  V30 27 Pb 6.1377 -1.8860 0.1654 0
M  V30 28 Pb 4.9473 -0.2875 0.3327 0
M  V30 29 Pb 5.2051 -1.2837 -0.6783 0
M  V30 30 Pb 5.8808 -0.9234 1.1665 0
M  V30 31 Pd -3.9121 3.8818 1.8041 0
M  V30 32 Pb -3.2594 3.5708 2.4964 0
M  V30 33 Pb -4.3366 2.9768 1.8802 0
M  V30 34 Pb -3.3819 4.7164 1.6735 0
M  V30 35 Pb -4.5586 4.2401 1.1208 0
M  V30 36 Pd 0.4621 -0.1918 -0.9720 0
M  V30 37 Pb -0.1294 -0.7918 -1.5141 0
M  V30 38 Pb 1.0096 0.0366 -1.7780 0
M  V30 39 Pb -0.0817 -0.3789 -0.1521 0
M  V30 40 Pb 1.0977 0.3725 -0.4463 0
M  V30 41 Pd -5.0013 -1.8908 -2.1619 0
M  V30 42 Pb -5.1120 -1.4894 -3.0827 0
M  V30 43 Pb -5.9847 -1.8273 -2.0217 0
M  V30 44 Pb -4.9163 -1.9772 -1.1735 0
M  V30 45 Pb -4.0180 -2.0037 -2.3217 0
M  V30 46 Ag 0.4239 4.5810 -3.3571 0
M  V30 47 Fe -1.9004 4.2150 -3.6800 0
M  V30 48 Ag -4.2273 3.8365 -3.9674 0
M  V30 49 Ag -4.5197 2.2493 1.9495 0
M  V30 50 Fe -4.7519 0.1308 0.8973 0
M  V30 51 Ag -4.9364 -1.8228 -0.4425 0
M  V30 52 Ag 0.9002 5.6620 -1.2477 0
M  V30 53 Fe -0.9947 5.6833 0.1768 0
M  V30 54 Ag -2.9206 5.2770 1.4981 0
M  V30 55 Ag 1.2875 1.4034 4.5284 0
M  V30 56 Fe -0.7359 2.3645 3.7357 0
M  V30 57 Ag -2.7869 3.3351 3.0304 0
M  V30 58 Ag 2.8198 4.2651 -0.8505 0
M  V30 59 Fe 3.1584 3.1448 1.2162 0
M  V30 60 Ag 3.4176 1.9754 3.2671 0
M  V30 61 Ag -7.3617 2.7161 -2.9662 0
M  V30 62 Fe -7.6605 0.4745 -2.3290 0
M  V30 63 Ag -6.6957 -1.6341 -1.9508 0
M  V30 64 Ba -0.5305 -1.2703 -1.9327 0
M  V30 65 Ga -1.9371 -1.6552 -2.1711 0
M  V30 66 Ba -3.2975 -2.1304 -2.4980 0
M  V30 67 Ba 3.7927 -4.1722 -1.9211 0
M  V30 68 Ga 4.3535 -2.8238 -1.7052 0
M  V30 69 Ba 4.9367 -1.5178 -1.3398 0
M  V30 70 Ba 0.0648 -4.5103 1.3418 0
M  V30 71 Ga 0.9175 -4.9654 0.2312 0
M  V30 72 Ba 1.8762 -5.3915 -0.8015 0
M  V30 73 Ba -5.6442 1.8023 -4.3495 0
M  V30 74 Ga -5.4241 0.3579 -4.0287 0
M  V30 75 Ba -5.2044 -1.0905 -3.7266 0
M  V30 76 Ba 1.5969 -5.2919 2.9863 0
M  V30 77 Ga 2.5099 -5.8113 1.9477 0
M  V30 78 Ba 3.3893 -6.2345 0.8390 0
M  V30 79 Ba 4.5073 0.0780 4.1997 0
M  V30 80 Ga 5.3180 -0.3825 3.0599 0
M  V30 81 Ba 6.0777 -0.8349 1.8824 0
M  V30 82 Ba -0.4693 -2.4944 2.6415 0
M  V30 83 Ga -0.4859 -1.4932 1.5580 0
M  V30 84 Ba -0.4899 -0.4999 0.4671 0
M  V30 85 Ba 5.3276 -5.1689 -0.4079 0
M  V30 86 Ga 5.9971 -3.8850 -0.1435 0
M  V30 87 Ba 6.5142 -2.5308 0.1128 0
M  V30 88 Ba 4.4775 0.2880 0.4508 0
M  V30 89 Ga 3.0488 0.5483 0.1841 0
M  V30 90 Ba 1.6184 0.7829 -0.0962 0
M  V30 91 Ba 1.0834 -3.2457 4.4431 0
M  V30 92 Ga 1.7224 -1.9788 4.8550 0
M  V30 93 Ba 2.3614 -0.7059 5.2481 0
M  V30 94 Ba -5.9430 4.5337 -2.1755 0
M  V30 95 Ga -5.4560 4.5503 -0.7771 0
M  V30 96 Ba -5.0000 4.6113 0.6303 0
M  V30 97 Ba 2.2800 3.0147 -3.0131 0
M  V30 98 Ga 1.8945 1.6193 -2.7242 0
M  V30 99 Ba 1.4455 0.2652 -2.3451 0
M  V30 END ATOM
M  V30 BEGIN BOND
M  V30 1 1 1 2
M  V30 2 1 1 3
M  V30 3 1 1 4
M  V30 4 1 1 5
M  V30 5 1 6 7
M  V30 6 1 6 8
M  V30 7 1 6 9
M  V30 8 1 6 10
M  V30 9 1 11 12
M  V30 10 1 11 13
M  V30 11 1 11 14
M  V30 12 1 11 15
M  V30 13 1 16 17
M  V30 14 1 16 18
M  V30 15 1 16 19
M  V30 16 1 16 20
M  V30 17 1 21 22
M  V30 18 1 21 23
M  V30 19 1 21 24
M  V30 20 1 21 25
M  V30 21 1 26 27
M  V30 22 1 26 28
M  V30 23 1 26 29
M  V30 24 1 26 30
M  V30 25 1 31 32
M  V30 26 1 31 33
M  V30 27 1 31 34
M  V30 28 1 31 35
M  V30 29 1 36 37
M  V30 30 1 36 38
M  V30 31 1 36 39
M  V30 32 1 36 40
M  V30 33 1 41 42
M  V30 34 1 41 43
M  V30 35 1 41 44
M  V30 36 1 41 45
M  V30 37 1 46 47
M  V30 38 1 47 48
M  V30 39 1 49 50
M  V30 40 1 50 51
M  V30 41 1 52 53
M  V30 42 1 53 54
M  V30 43 1 55 56
M  V30 44 1 56 57
M  V30 45 1 58 59
M  V30 46 1 59 60
M  V30 47 1 61 62
M  V30 48 1 62 63
M  V30 49 1 64 65
M  V30 50 1 65 66
M  V30 51 1 67 68
M  V30 52 1 68 69
M  V30 53 1 70 71
M  V30 54 1 71 72
M  V30 55 1 73 74
M  V30 56 1 74 75
M  V30 57 1 76 77
M  V30 58 1 77 78
M  V30 59 1 79 80
M  V30 60 1 80 81
M  V30 61 1 82 83
M  V30 62 1 83 84
M  V30 63 1 85 86
M  V30 64 1 86 87
M  V30 65 1 88 89
M  V30 66 1 89 90
M  V30 67 1 91 92
M  V30 68 1 92 93
M  V30 69 1 94 95
M  V30 70 1 95 96
M  V30 71 1 97 98
M  V30 72 1 98 99
M  V30 73 1 2 91
M  V30 74 1 3 70
M  V30 75 1 4 76
M  V30 76 1 5 82
M  V30 77 1 7 85
M  V30 78 1 8 78
M  V30 79 1 9 72
M  V30 80 1 10 67
M  V30 81 1 12 52
M  V30 82 1 13 97
M  V30 83 1 14 46
M  V30 84 1 15 58
M  V30 85 1 17 61
M  V30 86 1 18 94
M  V30 87 1 19 73
M  V30 88 1 20 48
M  V30 89 1 22 55
M  V30 90 1 23 79
M  V30 91 1 24 60
M  V30 92 1 25 93
M  V30 93 1 27 87
M  V30 94 1 28 88
M  V30 95 1 29 69
M  V30 96 1 30 81
M  V30 97 1 32 57
M  V30 98 1 33 49
M  V30 99 1 34 54
M  V30 100 1 35 96
M  V30 101 1 37 64
M  V30 102 1 38 99
M  V30 103 1 39 84
M  V30 104 1 40 90
M  V30 105 1 42 75
M  V30 106 1 43 63
M  V30 107 1 44 51
M  V30 108 1 45 66
M  V30 END BOND
M  V30 END CTAB
M  END

$$$$
