
     RDKit          3D

  0  0  0  0  0  0  0  0  0  0999 V3000
M  V30 BEGIN CTAB
M  V30 COUNTS 99 108 0 0 0
M  V30 BEGIN ATOM
M  V30 1 Pd -7.7839 2.0613 4.8145 0
M  V30 2 Pb -7.8784 1.2216 4.2781 0
M  V30 3 Pb -8.7236 2.3405 4.6116 0
M  V30 4 Pb -6.7775 2.0248 4.8207 0
M  V30 5 Pb -7.7109 2.8816 5.3737 0
M  V30 6 Pd 1.6813 0.7500 2.6391 0
M  V30 7 Pb 2.3483 1.1344 1.9985 0
M  V30 8 Pb 0.9451 0.3717 3.2012 0
M  V30 9 Pb 1.3450 1.6761 2.8048 0
M  V30 10 Pb 2.0289 -0.1744 2.4779 0
M  V30 11 Pd 4.2893 -1.1679 -3.4227 0
M  V30 12 Pb 3.7246 -0.6999 -2.7435 0
M  V30 13 Pb 5.1052 -0.8932 -2.9112 0
M  V30 14 Pb 4.8485 -1.6669 -4.1051 0
M  V30 15 Pb 3.4784 -1.5466 -3.8624 0
M  V30 16 Pd 6.9053 -4.2233 -0.3711 0
M  V30 17 Pb 7.0618 -3.2389 -0.4717 0
M  V30 18 Pb 6.7108 -5.2090 -0.3849 0
M  V30 19 Pb 6.0803 -4.0455 0.1661 0
M  V30 20 Pb 7.7176 -4.4078 -0.9192 0
M  V30 21 Pd -5.0733 -1.5395 1.2738 0
M  V30 22 Pb -4.2138 -1.7303 0.7739 0
M  V30 23 Pb -4.5403 -1.4860 2.1181 0
M  V30 24 Pb -5.9338 -1.3791 1.7585 0
M  V30 25 Pb -5.5512 -1.5329 0.4001 0
M  V30 26 Pd -5.6399 5.9522 3.1257 0
M  V30 27 Pb -5.0253 5.2220 3.4495 0
M  V30 28 Pb -5.2277 5.9559 2.2148 0
M  V30 29 Pb -6.4591 6.4370 2.8162 0
M  V30 30 Pb -6.0325 5.9646 4.0400 0
M  V30 31 Pd -1.0283 0.1071 -2.7447 0
M  V30 32 Pb -1.8966 0.0094 -3.2230 0
M  V30 33 Pb -0.7283 0.8477 -3.3437 0
M  V30 34 Pb -1.3345 -0.6037 -2.0943 0
M  V30 35 Pb -0.1738 0.2100 -2.2360 0
M  V30 36 Pd 6.2434 -6.2620 -4.4527 0
M  V30 37 Pb 6.1877 -6.9347 -3.7162 0
M  V30 38 Pb 6.2568 -5.4204 -5.0050 0
M  V30 39 Pb 5.2821 -6.3739 -4.6943 0
M  V30 40 Pb 7.1923 -6.0973 -4.1959 0
M  V30 41 Pd 0.6258 4.2830 -0.8383 0
M  V30 42 Pb 0.5861 4.4167 0.1501 0
M  V30 43 Pb -0.2806 4.6955 -0.9213 0
M  V30 44 Pb 0.6311 4.0978 -1.8211 0
M  V30 45 Pb 1.5112 3.8296 -0.7163 0
M  V30 46 Ag -4.8922 5.9680 1.5444 0
M  V30 47 Fe -2.9565 5.4934 0.2537 0
M  V30 48 Ag -0.9735 4.9797 -0.9471 0
M  V30 49 Ag 0.3496 0.0856 3.5575 0
M  V30 50 Fe -1.8749 -0.6923 3.2601 0
M  V30 51 Ag -4.0673 -1.4108 2.6953 0
M  V30 52 Ag -9.2578 2.7946 4.3509 0
M  V30 53 Fe -8.7756 4.8961 3.3721 0
M  V30 54 Ag -7.1935 6.5287 2.7097 0
M  V30 55 Ag 2.9841 -2.0102 -4.1668 0
M  V30 56 Fe 3.2883 -4.2868 -4.7059 0
M  V30 57 Ag 4.5659 -6.2644 -4.8613 0
M  V30 58 Ag 2.2845 -0.8719 2.3699 0
M  V30 59 Fe 3.8767 -2.3831 1.4618 0
M  V30 60 Ag 5.4575 -3.9115 0.5626 0
M  V30 61 Ag -5.7490 -1.4622 -0.3123 0
M  V30 62 Fe -4.4940 -0.8108 -2.2031 0
M  V30 63 Ag -2.5986 -0.1195 -3.4296 0
M  V30 64 Ba 2.7961 1.4477 1.4823 0
M  V30 65 Ga 2.5194 2.4591 0.4404 0
M  V30 66 Ba 2.1581 3.4735 -0.5723 0
M  V30 67 Ba -6.0287 2.1453 4.7675 0
M  V30 68 Ga -5.3013 3.3436 4.2555 0
M  V30 69 Ba -4.6895 4.5954 3.7204 0
M  V30 70 Ba 5.6977 -0.7384 -2.4752 0
M  V30 71 Ga 6.4569 -1.5865 -1.5325 0
M  V30 72 Ba 7.1595 -2.5068 -0.6138 0
M  V30 73 Ba -7.9926 0.5823 3.9013 0
M  V30 74 Ga -7.2560 -0.3257 3.0007 0
M  V30 75 Ba -6.5977 -1.2885 2.0965 0
M  V30 76 Ba 5.2386 -2.0302 -4.6515 0
M  V30 77 Ga 5.7387 -3.3950 -4.9773 0
M  V30 78 Ba 6.2579 -4.7423 -5.3439 0
M  V30 79 Ba -3.5701 -1.9310 0.4193 0
M  V30 80 Ga -2.5926 -1.4719 -0.6053 0
M  V30 81 Ba -1.5365 -1.1486 -1.6037 0
M  V30 82 Ba -7.6394 3.5171 5.7558 0
M  V30 83 Ga -7.0070 4.7659 5.3221 0
M  V30 84 Ba -6.3367 5.9207 4.7180 0
M  V30 85 Ba 1.1128 2.3820 2.8996 0
M  V30 86 Ga 0.8203 3.4552 1.9344 0
M  V30 87 Ba 0.5505 4.4639 0.8959 0
M  V30 88 Ba 8.2831 -4.5883 -1.3720 0
M  V30 89 Ga 8.1896 -5.2588 -2.6748 0
M  V30 90 Ba 7.8733 -5.9278 -3.9428 0
M  V30 91 Ba 3.3108 -0.3562 -2.2215 0
M  V30 92 Ga 1.8833 -0.0315 -2.0458 0
M  V30 93 Ba 0.4610 0.3037 -1.8484 0
M  V30 94 Ba 6.5697 -5.9447 -0.4802 0
M  V30 95 Ga 6.3560 -6.7108 -1.7285 0
M  V30 96 Ba 6.1657 -7.3113 -3.0675 0
M  V30 97 Ba -0.4656 1.4360 -3.7250 0
M  V30 98 Ga 0.0763 2.7034 -3.2031 0
M  V30 99 Ba 0.5911 3.9196 -2.5486 0
M  V30 END ATOM
M  V30 BEGIN BOND
M  V30 1 1 1 2
M  V30 2 1 1 3
M  V30 3 1 1 4
M  V30 4 1 1 5
M  V30 5 1 6 7
M  V30 6 1 6 8
M  V30 7 1 6 9
M  V30 8 1 6 10
M  V30 9 1 11 12
M  V30 10 1 11 13
M  V30 11 1 11 14
M  V30 12 1 11 15
M  V30 13 1 16 17
M  V30 14 1 16 18
M  V30 15 1 16 19
M  V30 16 1 16 20
M  V30 17 1 21 22
M  V30 18 1 21 23
M  V30 19 1 21 24
M  V30 20 1 21 25
M  V30 21 1 26 27
M  V30 22 1 26 28
M  V30 23 1 26 29
M  V30 24 1 26 30
M  V30 25 1 31 32
M  V30 26 1 31 33
M  V30 27 1 31 34
M  V30 28 1 31 35
M  V30 29 1 36 37
M  V30 30 1 36 38
M  V30 31 1 36 39
M  V30 32 1 36 40
M  V30 33 1 41 42
M  V30 34 1 41 43
M  V30 35 1 41 44
M  V30 36 1 41 45
M  V30 37 1 46 47
M  V30 38 1 47 48
M  V30 39 1 49 50
M  V30 40 1 50 51
M  V30 41 1 52 53
M  V30 42 1 53 54
M  V30 43 1 55 56
M  V30 44 1 56 57
M  V30 45 1 58 59
M  V30 46 1 59 60
M  V30 47 1 61 62
M  V30 48 1 62 63
M  V30 49 1 64 65
M  V30 50 1 65 66
M  V30 51 1 67 68
M  V30 52 1 68 69
M  V30 53 1 70 71
M  V30 54 1 71 72
M  V30 55 1 73 74
M  V30 56 1 74 75
M  V30 57 1 76 77
M  V30 58 1 77 78
M  V30 59 1 79 80
M  V30 60 1 80 81
M  V30 61 1 82 83
M  V30 62 1 83 84
M  V30 63 1 85 86
M  V30 64 1 86 87
M  V30 65 1 88 89
M  V30 66 1 89 90
M  V30 67 1 91 92
M  V30 68 1 92 93
M  V30 69 1 94 95
M  V30 70 1 95 96
M  V30 71 1 97 98
M  V30 72 1 98 99
M  V30 73 1 2 73
M  V30 74 1 3 52
M  V30 75 1 4 67
M  V30 76 1 5 82
M  V30 77 1 7 64
M  V30 78 1 8 49
M  V30 79 1 9 85
M  V30 80 1 10 58
M  V30 81 1 12 91
M  V30 82 1 13 70
M  V30 83 1 14 76
M  V30 84 1 15 55
M  V30 85 1 17 72
M  V30 86 1 18 94
M  V30 87 1 19 60
M  V30 88 1 20 88
M  V30 89 1 22 79
M  V30 90 1 23 51
M  V30 91 1 24 75
M  V30 92 1 25 61
M  V30 93 1 27 69
M  V30 94 1 28 46
M  V30 95 1 29 54
M  V30 96 1 30 84
M  V30 97 1 32 63
M  V30 98 1 33 97
M  V30 99 1 34 81
M  V30 100 1 35 93
M  V30 101 1 37 96
M  V30 102 1 38 78
M  V30 103 1 39 57
M  V30 104 1 40 90
M  V30 105 1 42 87
M  V30 106 1 43 48
M  V30 107 1 44 99
M  V30 108 1 45 66
M  V30 END BOND
M  V30 END CTAB
M  END

$$$$
