
     RDKit          3D

  0  0  0  0  0  0  0  0  0  0999 V3000
M  V30 BEGIN CTAB
M  V30 COUNTS 99 108 0 0 0
M  V30 BEGIN ATOM
M  V30 1 Pd -1.2445 1.6124 3.2751 0
M  V30 2 Pb -1.9926 1.4799 3.9268 0
M  V30 3 Pb -0.8729 2.3845 3.7897 0
M  V30 4 Pb -2.0746 2.1336 3.0530 0
M  V30 5 Pb -0.3069 1.3693 3.0327 0
M  V30 6 Pd 5.0795 4.5769 6.6540 0
M  V30 7 Pb 5.4282 5.1652 5.9130 0
M  V30 8 Pb 4.1310 4.6258 6.3366 0
M  V30 9 Pb 6.0068 4.5613 7.0131 0
M  V30 10 Pb 4.9024 3.7689 7.2173 0
M  V30 11 Pd 8.6987 2.7601 4.1076 0
M  V30 12 Pb 8.3891 3.6788 3.8305 0
M  V30 13 Pb 8.5934 2.3768 3.1888 0
M  V30 14 Pb 8.7131 1.8558 4.5364 0
M  V30 15 Pb 8.8523 3.1370 5.0148 0
M  V30 16 Pd 2.3748 -2.1738 -6.6785 0
M  V30 17 Pb 1.5121 -2.0979 -7.1779 0
M  V30 18 Pb 3.2001 -2.1481 -6.0892 0
M  V30 19 Pb 2.0574 -3.0212 -6.2474 0
M  V30 20 Pb 2.7075 -1.3287 -7.0836 0
M  V30 21 Pd -6.8546 1.4155 -1.3418 0
M  V30 22 Pb -6.9908 0.4805 -1.6935 0
M  V30 23 Pb -6.0345 1.5292 -1.8943 0
M  V30 24 Pb -6.5693 2.1979 -0.7887 0
M  V30 25 Pb -7.6468 1.3026 -0.7508 0
M  V30 26 Pd -4.6577 -1.7680 -4.7674 0
M  V30 27 Pb -4.1602 -1.6218 -5.6219 0
M  V30 28 Pb -4.9851 -2.6302 -5.1463 0
M  V30 29 Pb -4.3306 -0.8926 -4.4267 0
M  V30 30 Pb -5.0546 -1.9936 -3.8640 0
M  V30 31 Pd -5.0273 -1.8581 3.1887 0
M  V30 32 Pb -5.9662 -1.5914 3.3809 0
M  V30 33 Pb -5.3226 -2.2177 2.2869 0
M  V30 34 Pb -4.7231 -1.3410 3.9876 0
M  V30 35 Pb -4.1023 -2.1380 2.9593 0
M  V30 36 Pd -3.1928 -5.2407 -2.7570 0
M  V30 37 Pb -2.3179 -5.5730 -3.1074 0
M  V30 38 Pb -2.7261 -4.9070 -1.9435 0
M  V30 39 Pb -3.6653 -5.5633 -3.5698 0
M  V30 40 Pb -4.0538 -4.7707 -2.5066 0
M  V30 41 Pd 4.4601 0.3687 -1.8842 0
M  V30 42 Pb 4.1511 0.4062 -0.9361 0
M  V30 43 Pb 4.7084 0.8573 -2.7145 0
M  V30 44 Pb 5.3987 0.4605 -1.5549 0
M  V30 45 Pb 4.7124 -0.2035 -2.6854 0
M  V30 46 Ag -7.0397 -0.2651 -1.8320 0
M  V30 47 Fe -5.9158 -2.3553 -2.0874 0
M  V30 48 Ag -4.7095 -4.3883 -2.4292 0
M  V30 49 Ag -8.1284 1.1509 -0.2085 0
M  V30 50 Fe -7.8472 -0.0573 1.7954 0
M  V30 51 Ag -6.6632 -1.3393 3.3795 0
M  V30 52 Ag -3.4661 -2.3959 2.6771 0
M  V30 53 Fe -2.7424 -3.5278 0.7292 0
M  V30 54 Ag -2.3974 -4.6482 -1.3269 0
M  V30 55 Ag 5.0164 3.0676 7.4520 0
M  V30 56 Fe 6.7001 1.6759 6.5349 0
M  V30 57 Ag 8.4825 1.3277 5.0135 0
M  V30 58 Ag 0.8339 -1.9904 -7.4793 0
M  V30 59 Fe -1.4765 -1.7650 -6.9785 0
M  V30 60 Ag -3.7222 -1.5806 -6.2289 0
M  V30 61 Ag 0.4022 1.1892 2.8749 0
M  V30 62 Fe 2.1542 0.8112 1.3198 0
M  V30 63 Ag 3.9122 0.4312 -0.2279 0
M  V30 64 Ag 1.8119 -3.6507 -5.9167 0
M  V30 65 Fe 0.1250 -4.7613 -4.6644 0
M  V30 66 Ag -1.6501 -5.7248 -3.4125 0
M  V30 67 Ag -5.3264 -2.2235 -3.1899 0
M  V30 68 Fe -5.3944 -2.2932 -0.7972 0
M  V30 69 Ag -5.5509 -2.4278 1.5871 0
M  V30 70 Ag 8.5525 2.0808 2.4995 0
M  V30 71 Fe 7.3307 1.3150 0.6122 0
M  V30 72 Ag 6.0800 0.5576 -1.2596 0
M  V30 73 Ag -0.5473 2.9530 4.1542 0
M  V30 74 Fe 1.4278 3.8222 5.1481 0
M  V30 75 Ag 3.4084 4.6829 6.1383 0
M  V30 76 Ag 3.0449 -0.6805 -7.1952 0
M  V30 77 Fe 4.1103 0.6461 -5.5672 0
M  V30 78 Ag 4.8064 1.1735 -3.3790 0
M  V30 79 Ag -2.6650 2.5385 2.8124 0
M  V30 80 Fe -4.4989 2.7163 1.3068 0
M  V30 81 Ag -6.2725 2.6617 -0.2780 0
M  V30 82 Ba 6.7119 4.5336 7.2487 0
M  V30 83 Ga 7.8800 4.0011 6.5448 0
M  V30 84 Ba 8.9254 3.4270 5.6958 0
M  V30 85 Ba 5.7920 5.4898 5.3278 0
M  V30 86 Ga 6.9231 4.9721 4.4999 0
M  V30 87 Ba 8.0515 4.3556 3.7388 0
M  V30 88 Ba -2.5038 1.2963 4.4464 0
M  V30 89 Ga -3.5199 0.2279 4.5222 0
M  V30 90 Ba -4.5171 -0.8607 4.5253 0
M  V30 91 Ba -5.4062 1.6030 -2.2884 0
M  V30 92 Ga -4.7272 0.7171 -3.2408 0
M  V30 93 Ba -4.1109 -0.2242 -4.1827 0
M  V30 94 Ba 3.8326 -2.0807 -5.6647 0
M  V30 95 Ga 4.3150 -1.3541 -4.4511 0
M  V30 96 Ba 4.9039 -0.6787 -3.2551 0
M  V30 97 Ba -5.1683 -3.2999 -5.4195 0
M  V30 98 Ga -4.6964 -4.5869 -4.9091 0
M  V30 99 Ba -4.0754 -5.6888 -4.1756 0
M  V30 END ATOM
M  V30 BEGIN BOND
M  V30 1 1 1 2
M  V30 2 1 1 3
M  V30 3 1 1 4
M  V30 4 1 1 5
M  V30 5 1 6 7
M  V30 6 1 6 8
M  V30 7 1 6 9
M  V30 8 1 6 10
M  V30 9 1 11 12
M  V30 10 1 11 13
M  V30 11 1 11 14
M  V30 12 1 11 15
M  V30 13 1 16 17
M  V30 14 1 16 18
M  V30 15 1 16 19
M  V30 16 1 16 20
M  V30 17 1 21 22
M  V30 18 1 21 23
M  V30 19 1 21 24
M  V30 20 1 21 25
M  V30 21 1 26 27
M  V30 22 1 26 28
M  V30 23 1 26 29
M  V30 24 1 26 30
M  V30 25 1 31 32
M  V30 26 1 31 33
M  V30 27 1 31 34
M  V30 28 1 31 35
M  V30 29 1 36 37
M  V30 30 1 36 38
M  V30 31 1 36 39
M  V30 32 1 36 40
M  V30 33 1 41 42
M  V30 34 1 41 43
M  V30 35 1 41 44
M  V30 36 1 41 45
M  V30 37 1 46 47
M  V30 38 1 47 48
M  V30 39 1 49 50
M  V30 40 1 50 51
M  V30 41 1 52 53
M  V30 42 1 53 54
M  V30 43 1 55 56
M  V30 44 1 56 57
M  V30 45 1 58 59
M  V30 46 1 59 60
M  V30 47 1 61 62
M  V30 48 1 62 63
M  V30 49 1 64 65
M  V30 50 1 65 66
M  V30 51 1 67 68
M  V30 52 1 68 69
M  V30 53 1 70 71
M  V30 54 1 71 72
M  V30 55 1 73 74
M  V30 56 1 74 75
M  V30 57 1 76 77
M  V30 58 1 77 78
M  V30 59 1 79 80
M  V30 60 1 80 81
M  V30 61 1 82 83
M  V30 62 1 83 84
M  V30 63 1 85 86
M  V30 64 1 86 87
M  V30 65 1 88 89
M  V30 66 1 89 90
M  V30 67 1 91 92
M  V30 68 1 92 93
M  V30 69 1 94 95
M  V30 70 1 95 96
M  V30 71 1 97 98
M  V30 72 1 98 99
M  V30 73 1 2 88
M  V30 74 1 3 73
M  V30 75 1 4 79
M  V30 76 1 5 61
M  V30 77 1 7 85
M  V30 78 1 8 75
M  V30 79 1 9 82
M  V30 80 1 10 55
M  V30 81 1 12 87
M  V30 82 1 13 70
M  V30 83 1 14 57
M  V30 84 1 15 84
M  V30 85 1 17 58
M  V30 86 1 18 94
M  V30 87 1 19 64
M  V30 88 1 20 76
M  V30 89 1 22 46
M  V30 90 1 23 91
M  V30 91 1 24 81
M  V30 92 1 25 49
M  V30 93 1 27 60
M  V30 94 1 28 97
M  V30 95 1 29 93
M  V30 96 1 30 67
M  V30 97 1 32 51
M  V30 98 1 33 69
M  V30 99 1 34 90
M  V30 100 1 35 52
M  V30 101 1 37 66
M  V30 102 1 38 54
M  V30 103 1 39 99
M  V30 104 1 40 48
M  V30 105 1 42 63
M  V30 106 1 43 78
M  V30 107 1 44 72
M  V30 108 1 45 96
M  V30 END BOND
M  V30 END CTAB
M  END

$$$$
