
     RDKit          3D

  0  0  0  0  0  0  0  0  0  0999 V3000
M  V30 BEGIN CTAB
M  V30 COUNTS 99 108 0 0 0
M  V30 BEGIN ATOM
M  V30 1 Pd 5.3335 -4.5831 -1.6471 0
M  V30 2 Pb 5.9203 -3.8982 -1.2062 0
M  V30 3 Pb 5.0638 -3.9380 -2.3834 0
M  V30 4 Pb 4.7481 -5.2736 -2.0561 0
M  V30 5 Pb 5.4949 -5.1993 -0.8823 0
M  V30 6 Pd -4.4970 0.4539 -3.1255 0
M  V30 7 Pb -5.1869 1.0259 -2.6785 0
M  V30 8 Pb -4.2014 1.2565 -3.6459 0
M  V30 9 Pb -3.8914 -0.1409 -3.6658 0
M  V30 10 Pb -4.8326 -0.3313 -2.6005 0
M  V30 11 Pd 1.9606 3.7800 1.8618 0
M  V30 12 Pb 2.6799 3.3671 1.2993 0
M  V30 13 Pb 1.8229 4.5194 1.2001 0
M  V30 14 Pb 2.0822 3.0625 2.5442 0
M  V30 15 Pb 1.2051 4.1461 2.3995 0
M  V30 16 Pd 5.0579 -0.6441 2.3529 0
M  V30 17 Pb 4.9145 0.0369 1.6313 0
M  V30 18 Pb 5.7392 -1.0994 1.7730 0
M  V30 19 Pb 4.3704 -0.1919 2.9166 0
M  V30 20 Pb 5.2152 -1.2659 3.1235 0
M  V30 21 Pd -4.1208 -1.6000 2.0310 0
M  V30 22 Pb -3.5530 -1.4392 2.8408 0
M  V30 23 Pb -4.7093 -0.8239 2.2646 0
M  V30 24 Pb -3.5729 -2.4202 1.8752 0
M  V30 25 Pb -4.6410 -1.7801 1.1937 0
M  V30 26 Pd -5.2677 3.9338 1.1011 0
M  V30 27 Pb -5.5486 3.1529 1.6586 0
M  V30 28 Pb -4.9963 4.7240 0.5505 0
M  V30 29 Pb -5.8509 3.6026 0.3633 0
M  V30 30 Pb -4.6386 4.2371 1.8123 0
M  V30 31 Pd 0.7755 -2.0146 -4.5719 0
M  V30 32 Pb 0.9382 -1.0322 -4.5537 0
M  V30 33 Pb 1.7722 -2.1583 -4.4142 0
M  V30 34 Pb 0.6414 -2.9982 -4.6083 0
M  V30 35 Pb -0.2058 -1.8796 -4.7401 0
M  V30 36 Pd 2.1570 -4.3661 4.5892 0
M  V30 37 Pb 2.9623 -3.9314 4.9884 0
M  V30 38 Pb 2.7750 -5.0509 4.2130 0
M  V30 39 Pb 1.3901 -4.7379 4.0700 0
M  V30 40 Pb 1.5306 -3.6544 4.9121 0
M  V30 41 Pd -1.3325 5.0604 -2.4933 0
M  V30 42 Pb -0.6479 5.4844 -1.8971 0
M  V30 43 Pb -1.9829 4.6429 -3.1306 0
M  V30 44 Pb -0.6122 4.5278 -2.9260 0
M  V30 45 Pb -2.0698 5.5839 -2.0667 0
M  V30 46 Ag 4.2330 -5.6902 -2.3862 0
M  V30 47 Fe 2.2798 -5.1549 -3.5885 0
M  V30 48 Ag 0.6790 -3.7360 -4.5735 0
M  V30 49 Ag 5.5130 -5.6202 -0.2683 0
M  V30 50 Fe 4.4930 -5.7359 1.8658 0
M  V30 51 Ag 3.2682 -5.4991 3.8788 0
M  V30 52 Ag -3.0736 -1.3716 3.4165 0
M  V30 53 Fe -1.0403 -2.1831 4.3438 0
M  V30 54 Ag 1.0060 -3.1431 5.0813 0
M  V30 55 Ag -3.1551 -3.0409 1.8492 0
M  V30 56 Fe -1.1949 -4.0903 2.6784 0
M  V30 57 Ag 0.8117 -4.9227 3.6330 0
M  V30 58 Ag 0.5971 4.3840 2.7619 0
M  V30 59 Fe -1.7689 4.4861 2.6560 0
M  V30 60 Ag -4.1116 4.4520 2.2955 0
M  V30 61 Ag 1.0931 -0.3025 -4.5373 0
M  V30 62 Fe 0.5255 1.9115 -3.9119 0
M  V30 63 Ag -0.1003 4.1018 -3.2594 0
M  V30 64 Ba -5.7475 1.4415 -2.3991 0
M  V30 65 Ga -5.9916 2.3840 -1.2919 0
M  V30 66 Ba -6.2662 3.3296 -0.1945 0
M  V30 67 Ba 4.8602 -3.4528 -2.9393 0
M  V30 68 Ga 3.6430 -2.8800 -3.5927 0
M  V30 69 Ba 2.5354 -2.2184 -4.3484 0
M  V30 70 Ba -5.1735 -0.2793 2.4946 0
M  V30 71 Ga -5.4443 1.1512 2.2531 0
M  V30 72 Ba -5.7845 2.5765 2.0760 0
M  V30 73 Ba 1.7016 5.1014 0.7399 0
M  V30 74 Ga 0.7871 5.4285 -0.3736 0
M  V30 75 Ba -0.1038 5.8067 -1.4901 0
M  V30 76 Ba 2.1665 2.5338 3.0661 0
M  V30 77 Ga 3.0088 1.3354 3.2065 0
M  V30 78 Ba 3.8529 0.1379 3.3433 0
M  V30 79 Ba -4.7887 5.3278 0.1558 0
M  V30 80 Ga -3.7111 5.6442 -0.8009 0
M  V30 81 Ba -2.6359 5.9671 -1.7583 0
M  V30 82 Ba -4.0235 1.8749 -4.0334 0
M  V30 83 Ga -3.2198 3.0944 -3.8127 0
M  V30 84 Ba -2.4329 4.3335 -3.6474 0
M  V30 85 Ba 6.3805 -3.4161 -0.8540 0
M  V30 86 Ga 6.2870 -2.4160 0.2333 0
M  V30 87 Ba 6.2533 -1.4051 1.3140 0
M  V30 88 Ba 5.3012 -1.6699 3.7534 0
M  V30 89 Ga 4.4752 -2.6468 4.4918 0
M  V30 90 Ba 3.6145 -3.6231 5.1902 0
M  V30 91 Ba 3.1976 3.0282 0.8713 0
M  V30 92 Ga 4.0110 1.7995 0.9914 0
M  V30 93 Ba 4.8254 0.5713 1.1090 0
M  V30 94 Ba -3.5185 -0.6008 -4.1361 0
M  V30 95 Ga -2.1863 -1.1676 -4.4488 0
M  V30 96 Ba -0.9399 -1.8254 -4.9051 0
M  V30 97 Ba -5.1252 -0.9022 -2.2071 0
M  V30 98 Ga -5.0506 -1.4083 -0.8203 0
M  V30 99 Ba -5.0035 -1.9456 0.5559 0
M  V30 END ATOM
M  V30 BEGIN BOND
M  V30 1 1 1 2
M  V30 2 1 1 3
M  V30 3 1 1 4
M  V30 4 1 1 5
M  V30 5 1 6 7
M  V30 6 1 6 8
M  V30 7 1 6 9
M  V30 8 1 6 10
M  V30 9 1 11 12
M  V30 10 1 11 13
M  V30 11 1 11 14
M  V30 12 1 11 15
M  V30 13 1 16 17
M  V30 14 1 16 18
M  V30 15 1 16 19
M  V30 16 1 16 20
M  V30 17 1 21 22
M  V30 18 1 21 23
M  V30 19 1 21 24
M  V30 20 1 21 25
M  V30 21 1 26 27
M  V30 22 1 26 28
M  V30 23 1 26 29
M  V30 24 1 26 30
M  V30 25 1 31 32
M  V30 26 1 31 33
M  V30 27 1 31 34
M  V30 28 1 31 35
M  V30 29 1 36 37
M  V30 30 1 36 38
M  V30 31 1 36 39
M  V30 32 1 36 40
M  V30 33 1 41 42
M  V30 34 1 41 43
M  V30 35 1 41 44
M  V30 36 1 41 45
M  V30 37 1 46 47
M  V30 38 1 47 48
M  V30 39 1 49 50
M  V30 40 1 50 51
M  V30 41 1 52 53
M  V30 42 1 53 54
M  V30 43 1 55 56
M  V30 44 1 56 57
M  V30 45 1 58 59
M  V30 46 1 59 60
M  V30 47 1 61 62
M  V30 48 1 62 63
M  V30 49 1 64 65
M  V30 50 1 65 66
M  V30 51 1 67 68
M  V30 52 1 68 69
M  V30 53 1 70 71
M  V30 54 1 71 72
M  V30 55 1 73 74
M  V30 56 1 74 75
M  V30 57 1 76 77
M  V30 58 1 77 78
M  V30 59 1 79 80
M  V30 60 1 80 81
M  V30 61 1 82 83
M  V30 62 1 83 84
M  V30 63 1 85 86
M  V30 64 1 86 87
M  V30 65 1 88 89
M  V30 66 1 89 90
M  V30 67 1 91 92
M  V30 68 1 92 93
M  V30 69 1 94 95
M  V30 70 1 95 96
M  V30 71 1 97 98
M  V30 72 1 98 99
M  V30 73 1 2 85
M  V30 74 1 3 67
M  V30 75 1 4 46
M  V30 76 1 5 49
M  V30 77 1 7 64
M  V30 78 1 8 82
M  V30 79 1 9 94
M  V30 80 1 10 97
M  V30 81 1 12 91
M  V30 82 1 13 73
M  V30 83 1 14 76
M  V30 84 1 15 58
M  V30 85 1 17 93
M  V30 86 1 18 87
M  V30 87 1 19 78
M  V30 88 1 20 88
M  V30 89 1 22 52
M  V30 90 1 23 70
M  V30 91 1 24 55
M  V30 92 1 25 99
M  V30 93 1 27 72
M  V30 94 1 28 79
M  V30 95 1 29 66
M  V30 96 1 30 60
M  V30 97 1 32 61
M  V30 98 1 33 69
M  V30 99 1 34 48
M  V30 100 1 35 96
M  V30 101 1 37 90
M  V30 102 1 38 51
M  V30 103 1 39 57
M  V30 104 1 40 54
M  V30 105 1 42 75
M  V30 106 1 43 84
M  V30 107 1 44 63
M  V30 108 1 45 81
M  V30 END BOND
M  V30 END CTAB
M  END

$$$$
