
     RDKit          3D

  0  0  0  0  0  0  0  0  0  0999 V3000
M  V30 BEGIN CTAB
M  V30 COUNTS 99 108 0 0 0
M  V30 BEGIN ATOM
M  V30 1 Pd 3.3753 1.8936 1.9202 0
M  V30 2 Pb 3.0670 1.3763 2.7192 0
M  V30 3 Pb 3.6973 2.4413 1.1451 0
M  V30 4 Pb 2.6625 2.5777 2.0755 0
M  V30 5 Pb 4.0647 1.1863 1.7575 0
M  V30 6 Pd 3.2883 0.6033 -8.1261 0
M  V30 7 Pb 2.4162 0.2470 -7.7876 0
M  V30 8 Pb 4.1646 0.9544 -8.4468 0
M  V30 9 Pb 3.6637 -0.3215 -8.1486 0
M  V30 10 Pb 2.9925 1.5505 -7.9845 0
M  V30 11 Pd -5.2463 -3.7331 3.9178 0
M  V30 12 Pb -5.8526 -3.3324 4.5969 0
M  V30 13 Pb -4.6222 -4.1174 3.2374 0
M  V30 14 Pb -5.9950 -3.7506 3.2552 0
M  V30 15 Pb -4.4817 -3.6594 4.5810 0
M  V30 16 Pd -6.9392 0.2344 1.3001 0
M  V30 17 Pb -7.3127 -0.6910 1.2429 0
M  V30 18 Pb -7.4087 0.3687 2.1655 0
M  V30 19 Pb -6.4701 0.0910 0.4287 0
M  V30 20 Pb -6.5111 1.1515 1.4036 0
M  V30 21 Pd -1.2007 -3.1055 -2.7532 0
M  V30 22 Pb -0.9583 -2.6446 -3.6096 0
M  V30 23 Pb -1.4735 -3.5840 -1.9180 0
M  V30 24 Pb -2.0329 -2.5517 -2.7198 0
M  V30 25 Pb -0.3572 -3.6443 -2.7585 0
M  V30 26 Pd -3.6298 3.8497 4.6799 0
M  V30 27 Pb -4.4460 3.6053 5.1912 0
M  V30 28 Pb -3.1117 3.8984 5.5334 0
M  V30 29 Pb -2.8038 4.0961 4.1730 0
M  V30 30 Pb -4.1508 3.7300 3.8142 0
M  V30 31 Pd -1.9567 -0.1395 7.2774 0
M  V30 32 Pb -1.0295 -0.1925 6.9067 0
M  V30 33 Pb -1.8127 0.8182 7.5264 0
M  V30 34 Pb -2.1330 -1.0935 6.9797 0
M  V30 35 Pb -2.8875 -0.0932 7.6251 0
M  V30 36 Pd 6.4106 -3.1508 -2.9066 0
M  V30 37 Pb 5.6408 -3.7694 -2.7555 0
M  V30 38 Pb 7.1072 -2.4551 -3.0764 0
M  V30 39 Pb 6.3142 -3.3214 -3.8863 0
M  V30 40 Pb 6.4387 -2.8977 -1.9406 0
M  V30 41 Pd 5.9775 3.5411 -5.3796 0
M  V30 42 Pb 6.2776 3.2628 -6.2888 0
M  V30 43 Pb 5.6712 3.8029 -4.4632 0
M  V30 44 Pb 6.7595 3.0604 -4.9869 0
M  V30 45 Pb 5.1357 3.8918 -5.7957 0
M  V30 46 Ag 1.7661 -0.0327 -7.5361 0
M  V30 47 Fe 0.5055 -1.1668 -5.8704 0
M  V30 48 Ag -0.8357 -2.2919 -4.2627 0
M  V30 49 Ag 2.8597 0.9913 3.3292 0
M  V30 50 Fe 1.2498 0.3840 4.9667 0
M  V30 51 Ag -0.3392 -0.2419 6.6176 0
M  V30 52 Ag 0.2735 -4.0500 -2.7156 0
M  V30 53 Fe 2.6458 -4.1659 -2.6962 0
M  V30 54 Ag 5.0210 -4.1853 -2.6917 0
M  V30 55 Ag -6.1272 -0.0361 -0.2260 0
M  V30 56 Fe -4.3862 -1.0771 -1.4613 0
M  V30 57 Ag -2.6448 -2.1185 -2.6958 0
M  V30 58 Ag -7.6469 0.5511 2.8420 0
M  V30 59 Fe -6.7046 1.9204 4.5106 0
M  V30 60 Ag -5.0872 3.3475 5.4562 0
M  V30 61 Ag -6.1749 -2.9609 5.1514 0
M  V30 62 Fe -5.2885 -1.4456 6.7245 0
M  V30 63 Ag -3.6114 -0.1604 7.7695 0
M  V30 64 Ag 4.0032 -0.9837 -8.0702 0
M  V30 65 Fe 5.1177 -2.3133 -6.4511 0
M  V30 66 Ag 6.1665 -3.3940 -4.6169 0
M  V30 67 Ag 2.1211 3.0879 2.1716 0
M  V30 68 Fe -0.0263 3.6858 2.9913 0
M  V30 69 Ag -2.1738 4.2827 3.8115 0
M  V30 70 Ag 4.5524 0.6245 1.6545 0
M  V30 71 Fe 5.5248 -1.0208 0.2440 0
M  V30 72 Ag 6.4424 -2.6324 -1.2399 0
M  V30 73 Ag 7.5609 -1.8707 -3.1929 0
M  V30 74 Fe 7.5882 0.3856 -3.9280 0
M  V30 75 Ag 7.2867 2.6034 -4.7168 0
M  V30 76 Ag 3.9182 2.9015 0.5924 0
M  V30 77 Fe 4.6857 3.3998 -1.6012 0
M  V30 78 Ag 5.4530 3.9950 -3.7707 0
M  V30 79 Ag -4.1427 -4.3971 2.7330 0
M  V30 80 Fe -2.9163 -4.1673 0.7119 0
M  V30 81 Ag -1.6778 -3.9657 -1.3049 0
M  V30 82 Ba -3.9026 -3.6309 5.0791 0
M  V30 83 Ga -3.1136 -2.6664 5.9008 0
M  V30 84 Ba -2.2453 -1.8204 6.7717 0
M  V30 85 Ba 2.8492 2.2721 -7.8241 0
M  V30 86 Ga 3.6253 3.2218 -6.9960 0
M  V30 87 Ba 4.4926 4.0674 -6.1458 0
M  V30 88 Ba 4.8254 1.2439 -8.6392 0
M  V30 89 Ga 5.6983 2.1382 -7.8666 0
M  V30 90 Ba 6.4562 3.0253 -6.9738 0
M  V30 91 Ba -6.1979 1.8495 1.4594 0
M  V30 92 Ga -5.3610 2.6988 2.3624 0
M  V30 93 Ba -4.5375 3.6634 3.1551 0
M  V30 94 Ba -6.5526 -3.7171 2.7549 0
M  V30 95 Ga -7.0882 -2.5887 1.9713 0
M  V30 96 Ba -7.5538 -1.4007 1.2323 0
M  V30 97 Ba -2.7181 3.8821 6.1711 0
M  V30 98 Ga -2.2045 2.7465 6.9590 0
M  V30 99 Ba -1.7327 1.5484 7.6774 0
M  V30 END ATOM
M  V30 BEGIN BOND
M  V30 1 1 1 2
M  V30 2 1 1 3
M  V30 3 1 1 4
M  V30 4 1 1 5
M  V30 5 1 6 7
M  V30 6 1 6 8
M  V30 7 1 6 9
M  V30 8 1 6 10
M  V30 9 1 11 12
M  V30 10 1 11 13
M  V30 11 1 11 14
M  V30 12 1 11 15
M  V30 13 1 16 17
M  V30 14 1 16 18
M  V30 15 1 16 19
M  V30 16 1 16 20
M  V30 17 1 21 22
M  V30 18 1 21 23
M  V30 19 1 21 24
M  V30 20 1 21 25
M  V30 21 1 26 27
M  V30 22 1 26 28
M  V30 23 1 26 29
M  V30 24 1 26 30
M  V30 25 1 31 32
M  V30 26 1 31 33
M  V30 27 1 31 34
M  V30 28 1 31 35
M  V30 29 1 36 37
M  V30 30 1 36 38
M  V30 31 1 36 39
M  V30 32 1 36 40
M  V30 33 1 41 42
M  V30 34 1 41 43
M  V30 35 1 41 44
M  V30 36 1 41 45
M  V30 37 1 46 47
M  V30 38 1 47 48
M  V30 39 1 49 50
M  V30 40 1 50 51
M  V30 41 1 52 53
M  V30 42 1 53 54
M  V30 43 1 55 56
M  V30 44 1 56 57
M  V30 45 1 58 59
M  V30 46 1 59 60
M  V30 47 1 61 62
M  V30 48 1 62 63
M  V30 49 1 64 65
M  V30 50 1 65 66
M  V30 51 1 67 68
M  V30 52 1 68 69
M  V30 53 1 70 71
M  V30 54 1 71 72
M  V30 55 1 73 74
M  V30 56 1 74 75
M  V30 57 1 76 77
M  V30 58 1 77 78
M  V30 59 1 79 80
M  V30 60 1 80 81
M  V30 61 1 82 83
M  V30 62 1 83 84
M  V30 63 1 85 86
M  V30 64 1 86 87
M  V30 65 1 88 89
M  V30 66 1 89 90
M  V30 67 1 91 92
M  V30 68 1 92 93
M  V30 69 1 94 95
M  V30 70 1 95 96
M  V30 71 1 97 98
M  V30 72 1 98 99
M  V30 73 1 2 49
M  V30 74 1 3 76
M  V30 75 1 4 67
M  V30 76 1 5 70
M  V30 77 1 7 46
M  V30 78 1 8 88
M  V30 79 1 9 64
M  V30 80 1 10 85
M  V30 81 1 12 61
M  V30 82 1 13 79
M  V30 83 1 14 94
M  V30 84 1 15 82
M  V30 85 1 17 96
M  V30 86 1 18 58
M  V30 87 1 19 55
M  V30 88 1 20 91
M  V30 89 1 22 48
M  V30 90 1 23 81
M  V30 91 1 24 57
M  V30 92 1 25 52
M  V30 93 1 27 60
M  V30 94 1 28 97
M  V30 95 1 29 69
M  V30 96 1 30 93
M  V30 97 1 32 51
M  V30 98 1 33 99
M  V30 99 1 34 84
M  V30 100 1 35 63
M  V30 101 1 37 54
M  V30 102 1 38 73
M  V30 103 1 39 66
M  V30 104 1 40 72
M  V30 105 1 42 90
M  V30 106 1 43 78
M  V30 107 1 44 75
M  V30 108 1 45 87
M  V30 END BOND
M  V30 END CTAB
M  END

$$$$
