
     RDKit          3D

  0  0  0  0  0  0  0  0  0  0999 V3000
M  V30 BEGIN CTAB
M  V30 COUNTS 99 108 0 0 0
M  V30 BEGIN ATOM
M  V30 1 Pd -4.0202 5.2060 5.1986 0
M  V30 2 Pb -3.2082 5.4035 5.7485 0
M  V30 3 Pb -4.4320 4.6226 5.8984 0
M  V30 4 Pb -4.8398 5.0173 4.6518 0
M  V30 5 Pb -3.6237 5.5756 4.3585 0
M  V30 6 Pd 0.1583 -5.8695 -1.4946 0
M  V30 7 Pb 0.7587 -5.7160 -0.6884 0
M  V30 8 Pb 0.9322 -5.7359 -2.1207 0
M  V30 9 Pb -0.5924 -6.0791 -0.8791 0
M  V30 10 Pb -0.4675 -6.0111 -2.2636 0
M  V30 11 Pd -6.0131 1.2854 1.7344 0
M  V30 12 Pb -5.5313 1.8257 1.0448 0
M  V30 13 Pb -5.7281 0.4115 1.3406 0
M  V30 14 Pb -6.2987 2.1625 2.1282 0
M  V30 15 Pb -6.3373 0.8715 2.5848 0
M  V30 16 Pd 1.2754 2.0209 -7.1159 0
M  V30 17 Pb 1.7618 2.7360 -6.6105 0
M  V30 18 Pb 0.8016 1.2634 -7.5562 0
M  V30 19 Pb 0.3949 2.2732 -6.7120 0
M  V30 20 Pb 2.1357 1.5930 -7.3802 0
M  V30 21 Pd 4.8923 2.8902 -0.6929 0
M  V30 22 Pb 4.5184 3.5776 -0.0697 0
M  V30 23 Pb 5.0083 2.2473 0.0601 0
M  V30 24 Pb 4.6888 3.4640 -1.4869 0
M  V30 25 Pb 5.2998 2.1945 -1.3016 0
M  V30 26 Pd 4.7156 -2.5821 -3.0477 0
M  V30 27 Pb 4.7432 -2.3768 -4.0256 0
M  V30 28 Pb 4.2187 -3.4387 -3.2103 0
M  V30 29 Pb 5.2003 -1.7061 -2.9098 0
M  V30 30 Pb 4.7155 -2.7111 -2.0595 0
M  V30 31 Pd -3.1613 -2.6691 -4.2913 0
M  V30 32 Pb -3.2135 -1.6675 -4.3387 0
M  V30 33 Pb -2.7877 -2.6370 -5.2142 0
M  V30 34 Pb -3.0247 -3.6603 -4.2650 0
M  V30 35 Pb -3.5245 -2.6758 -3.3596 0
M  V30 36 Pd 1.2221 3.4568 5.6574 0
M  V30 37 Pb 1.6303 4.1454 5.0618 0
M  V30 38 Pb 0.7979 2.7013 6.1585 0
M  V30 39 Pb 0.6218 4.1330 6.0848 0
M  V30 40 Pb 1.8265 2.7784 5.2455 0
M  V30 41 Pd 0.8922 -3.5933 4.0263 0
M  V30 42 Pb 1.6373 -2.9376 3.9407 0
M  V30 43 Pb 0.5410 -3.0243 4.7734 0
M  V30 44 Pb 0.1046 -4.1957 4.0818 0
M  V30 45 Pb 1.2477 -4.1274 3.2364 0
M  V30 46 Ag 4.2513 4.0759 0.4237 0
M  V30 47 Fe 3.1103 4.4413 2.4733 0
M  V30 48 Ag 1.9494 4.5751 4.5395 0
M  V30 49 Ag -3.4538 5.6359 3.6313 0
M  V30 50 Fe -4.0849 4.2103 1.8421 0
M  V30 51 Ag -5.1142 2.3729 0.7482 0
M  V30 52 Ag -0.2720 2.3004 -6.3655 0
M  V30 53 Fe -1.8349 0.8166 -5.3572 0
M  V30 54 Ag -3.1759 -0.9206 -4.4376 0
M  V30 55 Ag 0.4292 0.6638 -7.7963 0
M  V30 56 Fe -1.0397 -1.0236 -7.0176 0
M  V30 57 Ag -2.4824 -2.5222 -5.8845 0
M  V30 58 Ag -4.8018 4.0459 6.2016 0
M  V30 59 Fe -5.7975 2.1875 5.1121 0
M  V30 60 Ag -6.4594 0.7816 3.3185 0
M  V30 61 Ag 0.5139 2.0651 6.4394 0
M  V30 62 Fe 0.3425 -0.2624 5.9858 0
M  V30 63 Ag 0.3157 -2.5399 5.3036 0
M  V30 64 Ag 2.2509 2.2354 4.9562 0
M  V30 65 Fe 2.3305 -0.0627 4.3796 0
M  V30 66 Ag 2.1263 -2.3756 3.9022 0
M  V30 67 Ag 2.7240 1.1420 -7.4712 0
M  V30 68 Fe 3.8760 -0.5265 -6.2386 0
M  V30 69 Ag 4.7829 -2.1155 -4.7273 0
M  V30 70 Ag 2.1434 3.2348 -6.1976 0
M  V30 71 Fe 3.3346 3.6259 -4.1786 0
M  V30 72 Ag 4.4881 3.8301 -2.1109 0
M  V30 73 Ag -1.0768 -6.2161 -0.3360 0
M  V30 74 Fe -1.1793 -5.6517 1.9485 0
M  V30 75 Ag -0.4746 -4.6361 3.9527 0
M  V30 76 Ag -5.5208 -0.2429 1.0384 0
M  V30 77 Fe -4.6563 -1.4658 -0.8050 0
M  V30 78 Ag -3.7903 -2.6724 -2.6583 0
M  V30 79 Ag 5.0433 1.6441 0.4945 0
M  V30 80 Fe 4.9277 -0.6625 -0.0081 0
M  V30 81 Ag 4.7583 -2.6194 -1.3225 0
M  V30 82 Ba -2.6090 5.5668 6.1695 0
M  V30 83 Ga -1.2162 5.0931 6.2792 0
M  V30 84 Ba 0.1821 4.6430 6.4153 0
M  V30 85 Ba 1.5117 -5.7025 -2.6025 0
M  V30 86 Ga 2.6700 -4.8475 -2.9445 0
M  V30 87 Ba 3.8577 -4.0784 -3.3776 0
M  V30 88 Ba 5.6597 1.6925 -1.7443 0
M  V30 89 Ga 5.5524 0.3040 -2.2661 0
M  V30 90 Ba 5.5922 -1.0562 -2.8660 0
M  V30 91 Ba -0.9732 -6.1212 -2.8087 0
M  V30 92 Ga -1.9264 -5.2618 -3.5395 0
M  V30 93 Ba -2.8770 -4.3967 -4.2670 0
M  V30 94 Ba -5.4620 4.8890 4.2472 0
M  V30 95 Ga -5.9691 3.8406 3.3356 0
M  V30 96 Ba -6.5215 2.8207 2.4180 0
M  V30 97 Ba 1.2299 -5.6316 -0.0900 0
M  V30 98 Ga 1.3130 -5.0437 1.2819 0
M  V30 99 Ba 1.5648 -4.5215 2.6599 0
M  V30 END ATOM
M  V30 BEGIN BOND
M  V30 1 1 1 2
M  V30 2 1 1 3
M  V30 3 1 1 4
M  V30 4 1 1 5
M  V30 5 1 6 7
M  V30 6 1 6 8
M  V30 7 1 6 9
M  V30 8 1 6 10
M  V30 9 1 11 12
M  V30 10 1 11 13
M  V30 11 1 11 14
M  V30 12 1 11 15
M  V30 13 1 16 17
M  V30 14 1 16 18
M  V30 15 1 16 19
M  V30 16 1 16 20
M  V30 17 1 21 22
M  V30 18 1 21 23
M  V30 19 1 21 24
M  V30 20 1 21 25
M  V30 21 1 26 27
M  V30 22 1 26 28
M  V30 23 1 26 29
M  V30 24 1 26 30
M  V30 25 1 31 32
M  V30 26 1 31 33
M  V30 27 1 31 34
M  V30 28 1 31 35
M  V30 29 1 36 37
M  V30 30 1 36 38
M  V30 31 1 36 39
M  V30 32 1 36 40
M  V30 33 1 41 42
M  V30 34 1 41 43
M  V30 35 1 41 44
M  V30 36 1 41 45
M  V30 37 1 46 47
M  V30 38 1 47 48
M  V30 39 1 49 50
M  V30 40 1 50 51
M  V30 41 1 52 53
M  V30 42 1 53 54
M  V30 43 1 55 56
M  V30 44 1 56 57
M  V30 45 1 58 59
M  V30 46 1 59 60
M  V30 47 1 61 62
M  V30 48 1 62 63
M  V30 49 1 64 65
M  V30 50 1 65 66
M  V30 51 1 67 68
M  V30 52 1 68 69
M  V30 53 1 70 71
M  V30 54 1 71 72
M  V30 55 1 73 74
M  V30 56 1 74 75
M  V30 57 1 76 77
M  V30 58 1 77 78
M  V30 59 1 79 80
M  V30 60 1 80 81
M  V30 61 1 82 83
M  V30 62 1 83 84
M  V30 63 1 85 86
M  V30 64 1 86 87
M  V30 65 1 88 89
M  V30 66 1 89 90
M  V30 67 1 91 92
M  V30 68 1 92 93
M  V30 69 1 94 95
M  V30 70 1 95 96
M  V30 71 1 97 98
M  V30 72 1 98 99
M  V30 73 1 2 82
M  V30 74 1 3 58
M  V30 75 1 4 94
M  V30 76 1 5 49
M  V30 77 1 7 97
M  V30 78 1 8 85
M  V30 79 1 9 73
M  V30 80 1 10 91
M  V30 81 1 12 51
M  V30 82 1 13 76
M  V30 83 1 14 96
M  V30 84 1 15 60
M  V30 85 1 17 70
M  V30 86 1 18 55
M  V30 87 1 19 52
M  V30 88 1 20 67
M  V30 89 1 22 46
M  V30 90 1 23 79
M  V30 91 1 24 72
M  V30 92 1 25 88
M  V30 93 1 27 69
M  V30 94 1 28 87
M  V30 95 1 29 90
M  V30 96 1 30 81
M  V30 97 1 32 54
M  V30 98 1 33 57
M  V30 99 1 34 93
M  V30 100 1 35 78
M  V30 101 1 37 48
M  V30 102 1 38 61
M  V30 103 1 39 84
M  V30 104 1 40 64
M  V30 105 1 42 66
M  V30 106 1 43 63
M  V30 107 1 44 75
M  V30 108 1 45 99
M  V30 END BOND
M  V30 END CTAB
M  END

$$$$
