
     RDKit          3D

  0  0  0  0  0  0  0  0  0  0999 V3000
M  V30 BEGIN CTAB
M  V30 COUNTS 99 108 0 0 0
M  V30 BEGIN ATOM
M  V30 1 Pd -3.5857 3.2365 -4.2733 0
M  V30 2 Pb -3.2756 3.4138 -3.3388 0
M  V30 3 Pb -3.8566 2.2998 -4.0452 0
M  V30 4 Pb -3.9246 3.0850 -5.1976 0
M  V30 5 Pb -3.0358 3.9968 -4.6237 0
M  V30 6 Pd -1.0987 -4.6671 -0.0582 0
M  V30 7 Pb -0.6762 -5.3349 0.5622 0
M  V30 8 Pb -0.4825 -3.9519 0.2715 0
M  V30 9 Pb -1.6857 -5.3991 -0.3961 0
M  V30 10 Pb -1.4600 -4.0512 -0.7613 0
M  V30 11 Pd 1.0607 -8.2695 -1.9021 0
M  V30 12 Pb 0.9742 -7.9691 -2.8582 0
M  V30 13 Pb 2.0467 -8.1396 -1.9809 0
M  V30 14 Pb 0.0678 -8.3421 -1.8446 0
M  V30 15 Pb 1.0970 -8.3296 -0.9058 0
M  V30 16 Pd -2.1346 3.1298 4.9068 0
M  V30 17 Pb -2.1835 3.8385 5.6019 0
M  V30 18 Pb -2.2710 2.3935 4.2376 0
M  V30 19 Pb -2.0192 3.8398 4.2070 0
M  V30 20 Pb -1.9826 2.4449 5.6435 0
M  V30 21 Pd 4.0097 5.1027 2.8915 0
M  V30 22 Pb 4.0928 5.4720 3.8164 0
M  V30 23 Pb 3.9450 4.6979 1.9823 0
M  V30 24 Pb 4.5440 4.3292 3.2292 0
M  V30 25 Pb 3.2274 5.6848 2.6606 0
M  V30 26 Pd 1.8572 2.3717 8.6961 0
M  V30 27 Pb 1.0464 1.8265 8.4140 0
M  V30 28 Pb 1.2750 2.9191 9.2888 0
M  V30 29 Pb 2.4679 1.9309 8.0336 0
M  V30 30 Pb 2.5602 3.0720 8.7791 0
M  V30 31 Pd -0.7176 0.9059 0.0208 0
M  V30 32 Pb 0.0687 1.2293 -0.4958 0
M  V30 33 Pb -0.1975 0.0996 0.3033 0
M  V30 34 Pb -1.4398 0.6622 0.6615 0
M  V30 35 Pb -1.2211 1.7328 -0.2306 0
M  V30 36 Pd -0.7117 1.2293 -6.1249 0
M  V30 37 Pb -1.4143 1.3475 -6.8203 0
M  V30 38 Pb -0.4087 2.1671 -6.3022 0
M  V30 39 Pb 0.0050 1.0918 -5.4415 0
M  V30 40 Pb -1.2439 0.4700 -5.7461 0
M  V30 41 Pd 1.3408 -3.2165 -4.2510 0
M  V30 42 Pb 0.3803 -3.0117 -4.0558 0
M  V30 43 Pb 2.3055 -3.4599 -4.3181 0
M  V30 44 Pb 1.5678 -2.2633 -4.0516 0
M  V30 45 Pb 1.1212 -4.1832 -4.4613 0
M  V30 46 Ag 3.8457 4.3750 1.3162 0
M  V30 47 Fe 2.3894 2.9621 0.0937 0
M  V30 48 Ag 0.6949 1.5394 -0.7514 0
M  V30 49 Ag 4.7536 3.7081 3.5944 0
M  V30 50 Fe 4.0167 2.5485 5.5352 0
M  V30 51 Ag 2.9813 1.7375 7.5169 0
M  V30 52 Ag 4.1957 5.6339 4.5407 0
M  V30 53 Fe 3.7352 4.8177 6.7197 0
M  V30 54 Ag 3.0089 3.6543 8.6542 0
M  V30 55 Ag 2.7279 -7.8944 -2.1516 0
M  V30 56 Fe 3.3741 -5.8953 -3.2274 0
M  V30 57 Ag 2.9596 -3.8032 -4.2379 0
M  V30 58 Ag -1.7710 4.3943 3.7589 0
M  V30 59 Fe 0.2889 5.3361 3.0233 0
M  V30 60 Ag 2.5350 5.9483 2.5221 0
M  V30 61 Ag -2.2086 4.2638 6.2085 0
M  V30 62 Fe -0.9871 4.2489 8.2186 0
M  V30 63 Ag 0.7740 3.4065 9.5277 0
M  V30 64 Ba -4.0925 2.9303 -5.9056 0
M  V30 65 Ga -3.1574 2.2041 -6.7575 0
M  V30 66 Ba -1.9954 1.4827 -7.2639 0
M  V30 67 Ba -0.3407 -5.8810 0.9609 0
M  V30 68 Ga 0.3728 -7.0882 0.4895 0
M  V30 69 Ba 1.0458 -8.2316 -0.1643 0
M  V30 70 Ba -2.0570 -5.9929 -0.6552 0
M  V30 71 Ga -1.4673 -7.2056 -1.2371 0
M  V30 72 Ba -0.6758 -8.3156 -1.7832 0
M  V30 73 Ba -1.6985 -3.6256 -1.3340 0
M  V30 74 Ga -1.0471 -3.2200 -2.5975 0
M  V30 75 Ba -0.3214 -2.8594 -3.8337 0
M  V30 76 Ba -0.0016 -3.4313 0.5169 0
M  V30 77 Ga 0.0811 -1.9585 0.5142 0
M  V30 78 Ba 0.2063 -0.4888 0.5344 0
M  V30 79 Ba 0.8879 -7.6637 -3.5458 0
M  V30 80 Ga 0.9443 -6.2750 -4.0804 0
M  V30 81 Ba 0.9868 -4.9064 -4.6649 0
M  V30 82 Ba 0.5466 0.9616 -4.9397 0
M  V30 83 Ga 1.1467 -0.2768 -4.4094 0
M  V30 84 Ba 1.7154 -1.5420 -3.9086 0
M  V30 85 Ba -1.7961 1.9376 6.1903 0
M  V30 86 Ga -0.6854 1.7319 7.1772 0
M  V30 87 Ba 0.4007 1.4806 8.1809 0
M  V30 88 Ba -3.0663 3.5799 -2.6375 0
M  V30 89 Ga -2.3205 2.9436 -1.5349 0
M  V30 90 Ba -1.5866 2.3677 -0.3919 0
M  V30 91 Ba -2.5034 4.4115 -4.9596 0
M  V30 92 Ga -1.3633 3.7995 -5.6850 0
M  V30 93 Ba -0.3574 2.9186 -6.3273 0
M  V30 94 Ba -3.8901 1.5488 -3.9924 0
M  V30 95 Ga -2.8877 0.6680 -4.6404 0
M  V30 96 Ba -1.7594 0.0559 -5.3839 0
M  V30 97 Ba -2.4806 1.8195 3.7942 0
M  V30 98 Ga -2.1938 1.1862 2.4918 0
M  V30 99 Ba -1.9379 0.5206 1.1988 0
M  V30 END ATOM
M  V30 BEGIN BOND
M  V30 1 1 1 2
M  V30 2 1 1 3
M  V30 3 1 1 4
M  V30 4 1 1 5
M  V30 5 1 6 7
M  V30 6 1 6 8
M  V30 7 1 6 9
M  V30 8 1 6 10
M  V30 9 1 11 12
M  V30 10 1 11 13
M  V30 11 1 11 14
M  V30 12 1 11 15
M  V30 13 1 16 17
M  V30 14 1 16 18
M  V30 15 1 16 19
M  V30 16 1 16 20
M  V30 17 1 21 22
M  V30 18 1 21 23
M  V30 19 1 21 24
M  V30 20 1 21 25
M  V30 21 1 26 27
M  V30 22 1 26 28
M  V30 23 1 26 29
M  V30 24 1 26 30
M  V30 25 1 31 32
M  V30 26 1 31 33
M  V30 27 1 31 34
M  V30 28 1 31 35
M  V30 29 1 36 37
M  V30 30 1 36 38
M  V30 31 1 36 39
M  V30 32 1 36 40
M  V30 33 1 41 42
M  V30 34 1 41 43
M  V30 35 1 41 44
M  V30 36 1 41 45
M  V30 37 1 46 47
M  V30 38 1 47 48
M  V30 39 1 49 50
M  V30 40 1 50 51
M  V30 41 1 52 53
M  V30 42 1 53 54
M  V30 43 1 55 56
M  V30 44 1 56 57
M  V30 45 1 58 59
M  V30 46 1 59 60
M  V30 47 1 61 62
M  V30 48 1 62 63
M  V30 49 1 64 65
M  V30 50 1 65 66
M  V30 51 1 67 68
M  V30 52 1 68 69
M  V30 53 1 70 71
M  V30 54 1 71 72
M  V30 55 1 73 74
M  V30 56 1 74 75
M  V30 57 1 76 77
M  V30 58 1 77 78
M  V30 59 1 79 80
M  V30 60 1 80 81
M  V30 61 1 82 83
M  V30 62 1 83 84
M  V30 63 1 85 86
M  V30 64 1 86 87
M  V30 65 1 88 89
M  V30 66 1 89 90
M  V30 67 1 91 92
M  V30 68 1 92 93
M  V30 69 1 94 95
M  V30 70 1 95 96
M  V30 71 1 97 98
M  V30 72 1 98 99
M  V30 73 1 2 88
M  V30 74 1 3 94
M  V30 75 1 4 64
M  V30 76 1 5 91
M  V30 77 1 7 67
M  V30 78 1 8 76
M  V30 79 1 9 70
M  V30 80 1 10 73
M  V30 81 1 12 79
M  V30 82 1 13 55
M  V30 83 1 14 72
M  V30 84 1 15 69
M  V30 85 1 17 61
M  V30 86 1 18 97
M  V30 87 1 19 58
M  V30 88 1 20 85
M  V30 89 1 22 52
M  V30 90 1 23 46
M  V30 91 1 24 49
M  V30 92 1 25 60
M  V30 93 1 27 87
M  V30 94 1 28 63
M  V30 95 1 29 51
M  V30 96 1 30 54
M  V30 97 1 32 48
M  V30 98 1 33 78
M  V30 99 1 34 99
M  V30 100 1 35 90
M  V30 101 1 37 66
M  V30 102 1 38 93
M  V30 103 1 39 82
M  V30 104 1 40 96
M  V30 105 1 42 75
M  V30 106 1 43 57
M  V30 107 1 44 84
M  V30 108 1 45 81
M  V30 END BOND
M  V30 END CTAB
M  END

$$$$
