
     RDKit          3D

  0  0  0  0  0  0  0  0  0  0999 V3000
M  V30 BEGIN CTAB
M  V30 COUNTS 99 108 0 0 0
M  V30 BEGIN ATOM
M  V30 1 Pd -0.1405 -3.2508 3.9786 0
M  V30 2 Pb -0.8816 -3.9280 3.9392 0
M  V30 3 Pb 0.6051 -2.5981 4.1247 0
M  V30 4 Pb -0.5607 -2.8060 4.7675 0
M  V30 5 Pb 0.2478 -3.6099 3.1251 0
M  V30 6 Pd 7.2568 4.2903 -0.7901 0
M  V30 7 Pb 6.6149 4.5565 -1.5071 0
M  V30 8 Pb 6.9490 5.0187 -0.1827 0
M  V30 9 Pb 7.5213 3.5186 -1.3627 0
M  V30 10 Pb 7.8093 3.9243 -0.0282 0
M  V30 11 Pd -5.2185 -2.1385 -3.9352 0
M  V30 12 Pb -5.7481 -2.3498 -3.0880 0
M  V30 13 Pb -4.6202 -1.9363 -4.7019 0
M  V30 14 Pb -5.5396 -1.1899 -4.0029 0
M  V30 15 Pb -4.8689 -3.0658 -3.9408 0
M  V30 16 Pd -3.8146 3.0235 -2.3449 0
M  V30 17 Pb -4.3613 2.6034 -3.0714 0
M  V30 18 Pb -3.3349 3.3965 -1.5437 0
M  V30 19 Pb -3.0497 3.2443 -2.9600 0
M  V30 20 Pb -4.6034 2.9140 -1.7493 0
M  V30 21 Pd 1.2377 1.5369 -4.8572 0
M  V30 22 Pb 1.9598 2.1621 -4.5514 0
M  V30 23 Pb 0.5235 0.9717 -5.2592 0
M  V30 24 Pb 0.5758 2.2840 -4.7603 0
M  V30 25 Pb 1.8544 0.7504 -4.9569 0
M  V30 26 Pd -4.9627 2.0602 4.6595 0
M  V30 27 Pb -4.3012 2.6803 4.2282 0
M  V30 28 Pb -5.5761 1.3205 4.9178 0
M  V30 29 Pb -4.2966 1.6838 5.3001 0
M  V30 30 Pb -5.6087 2.3263 3.9539 0
M  V30 31 Pd -5.0985 -4.5019 1.5897 0
M  V30 32 Pb -4.5130 -4.8818 2.3068 0
M  V30 33 Pb -5.5531 -3.9224 2.2659 0
M  V30 34 Pb -4.6808 -5.1297 0.9465 0
M  V30 35 Pb -5.6323 -4.0702 0.8310 0
M  V30 36 Pd 4.4803 -2.3646 -2.1397 0
M  V30 37 Pb 4.0258 -2.1818 -3.0142 0
M  V30 38 Pb 4.9636 -2.5035 -1.2772 0
M  V30 39 Pb 5.2454 -1.8091 -2.4571 0
M  V30 40 Pb 3.7229 -2.9077 -1.7709 0
M  V30 41 Pd 6.3332 1.4086 3.9567 0
M  V30 42 Pb 6.1175 2.3358 4.2531 0
M  V30 43 Pb 5.5160 1.0443 4.4004 0
M  V30 44 Pb 6.5102 0.4986 3.5885 0
M  V30 45 Pb 7.1118 1.7884 3.4351 0
M  V30 46 Ag 6.1013 4.6651 -2.0414 0
M  V30 47 Fe 4.2802 3.6772 -3.2062 0
M  V30 48 Ag 2.4588 2.6995 -4.3789 0
M  V30 49 Ag -3.0636 3.6359 -0.8795 0
M  V30 50 Fe -3.3456 3.4500 1.4792 0
M  V30 51 Ag -3.8412 3.0775 3.7798 0
M  V30 52 Ag -4.6013 -3.7458 -3.8396 0
M  V30 53 Fe -4.2943 -5.0656 -1.9191 0
M  V30 54 Ag -4.4159 -5.5245 0.3827 0
M  V30 55 Ag 6.7149 5.4167 0.3995 0
M  V30 56 Fe 6.2133 4.6891 2.5873 0
M  V30 57 Ag 5.9943 3.0678 4.2876 0
M  V30 58 Ag -5.1730 2.8960 -1.2707 0
M  V30 59 Fe -5.7717 2.7021 1.0104 0
M  V30 60 Ag -6.0203 2.4607 3.3509 0
M  V30 61 Ag 7.6518 2.9111 -1.7764 0
M  V30 62 Fe 6.8259 0.7508 -2.2979 0
M  V30 63 Ag 5.8114 -1.3624 -2.6528 0
M  V30 64 Ag -0.8526 -2.3697 5.3011 0
M  V30 65 Fe -2.3134 -0.5361 5.6677 0
M  V30 66 Ag -3.8314 1.2867 5.7308 0
M  V30 67 Ag 0.4875 -3.8533 2.4526 0
M  V30 68 Fe 1.8336 -3.5992 0.5074 0
M  V30 69 Ag 3.1953 -3.3165 -1.4229 0
M  V30 70 Ag 5.3344 -2.5629 -0.6302 0
M  V30 71 Fe 6.0137 -1.4539 1.3538 0
M  V30 72 Ag 6.5874 -0.1704 3.2644 0
M  V30 73 Ag 1.1067 -2.0980 4.3786 0
M  V30 74 Fe 3.0242 -0.6969 4.4547 0
M  V30 75 Ag 4.8879 0.7583 4.6914 0
M  V30 76 Ag -5.9686 0.6907 4.9835 0
M  V30 77 Fe -6.0367 -1.4519 3.9688 0
M  V30 78 Ag -5.8901 -3.5054 2.7901 0
M  V30 79 Ag -4.1119 -1.7572 -5.2134 0
M  V30 80 Fe -2.0571 -0.6129 -5.4897 0
M  V30 81 Ag -0.0072 0.5688 -5.5942 0
M  V30 82 Ba -1.4185 -4.4572 3.9755 0
M  V30 83 Ga -2.7322 -4.7829 3.3800 0
M  V30 84 Ba -4.0480 -5.1655 2.8237 0
M  V30 85 Ba 2.2349 0.1103 -5.0801 0
M  V30 86 Ga 2.9912 -0.9272 -4.3439 0
M  V30 87 Ba 3.7605 -2.0145 -3.6986 0
M  V30 88 Ba -2.5060 3.4977 -3.4203 0
M  V30 89 Ga -1.2158 3.1121 -4.0356 0
M  V30 90 Ba 0.0760 2.8446 -4.7080 0
M  V30 91 Ba 8.2042 3.6301 0.5510 0
M  V30 92 Ga 7.9162 2.8579 1.7913 0
M  V30 93 Ba 7.6940 2.0854 3.0448 0
M  V30 94 Ba -6.1541 -2.5215 -2.4552 0
M  V30 95 Ga -6.0234 -3.1432 -1.0949 0
M  V30 96 Ba -6.0625 -3.7324 0.2853 0
M  V30 97 Ba -5.7329 -0.4786 -4.1640 0
M  V30 98 Ga -5.2748 0.8902 -3.8366 0
M  V30 99 Ba -4.8526 2.2772 -3.5389 0
M  V30 END ATOM
M  V30 BEGIN BOND
M  V30 1 1 1 2
M  V30 2 1 1 3
M  V30 3 1 1 4
M  V30 4 1 1 5
M  V30 5 1 6 7
M  V30 6 1 6 8
M  V30 7 1 6 9
M  V30 8 1 6 10
M  V30 9 1 11 12
M  V30 10 1 11 13
M  V30 11 1 11 14
M  V30 12 1 11 15
M  V30 13 1 16 17
M  V30 14 1 16 18
M  V30 15 1 16 19
M  V30 16 1 16 20
M  V30 17 1 21 22
M  V30 18 1 21 23
M  V30 19 1 21 24
M  V30 20 1 21 25
M  V30 21 1 26 27
M  V30 22 1 26 28
M  V30 23 1 26 29
M  V30 24 1 26 30
M  V30 25 1 31 32
M  V30 26 1 31 33
M  V30 27 1 31 34
M  V30 28 1 31 35
M  V30 29 1 36 37
M  V30 30 1 36 38
M  V30 31 1 36 39
M  V30 32 1 36 40
M  V30 33 1 41 42
M  V30 34 1 41 43
M  V30 35 1 41 44
M  V30 36 1 41 45
M  V30 37 1 46 47
M  V30 38 1 47 48
M  V30 39 1 49 50
M  V30 40 1 50 51
M  V30 41 1 52 53
M  V30 42 1 53 54
M  V30 43 1 55 56
M  V30 44 1 56 57
M  V30 45 1 58 59
M  V30 46 1 59 60
M  V30 47 1 61 62
M  V30 48 1 62 63
M  V30 49 1 64 65
M  V30 50 1 65 66
M  V30 51 1 67 68
M  V30 52 1 68 69
M  V30 53 1 70 71
M  V30 54 1 71 72
M  V30 55 1 73 74
M  V30 56 1 74 75
M  V30 57 1 76 77
M  V30 58 1 77 78
M  V30 59 1 79 80
M  V30 60 1 80 81
M  V30 61 1 82 83
M  V30 62 1 83 84
M  V30 63 1 85 86
M  V30 64 1 86 87
M  V30 65 1 88 89
M  V30 66 1 89 90
M  V30 67 1 91 92
M  V30 68 1 92 93
M  V30 69 1 94 95
M  V30 70 1 95 96
M  V30 71 1 97 98
M  V30 72 1 98 99
M  V30 73 1 2 82
M  V30 74 1 3 73
M  V30 75 1 4 64
M  V30 76 1 5 67
M  V30 77 1 7 46
M  V30 78 1 8 55
M  V30 79 1 9 61
M  V30 80 1 10 91
M  V30 81 1 12 94
M  V30 82 1 13 79
M  V30 83 1 14 97
M  V30 84 1 15 52
M  V30 85 1 17 99
M  V30 86 1 18 49
M  V30 87 1 19 88
M  V30 88 1 20 58
M  V30 89 1 22 48
M  V30 90 1 23 81
M  V30 91 1 24 90
M  V30 92 1 25 85
M  V30 93 1 27 51
M  V30 94 1 28 76
M  V30 95 1 29 66
M  V30 96 1 30 60
M  V30 97 1 32 84
M  V30 98 1 33 78
M  V30 99 1 34 54
M  V30 100 1 35 96
M  V30 101 1 37 87
M  V30 102 1 38 70
M  V30 103 1 39 63
M  V30 104 1 40 69
M  V30 105 1 42 57
M  V30 106 1 43 75
M  V30 107 1 44 72
M  V30 108 1 45 93
M  V30 END BOND
M  V30 END CTAB
M  END

$$$$
