
     RDKit          3D

  0  0  0  0  0  0  0  0  0  0999 V3000
M  V30 BEGIN CTAB
M  V30 COUNTS 99 108 0 0 0
M  V30 BEGIN ATOM
M  V30 1 Pd 4.5602 2.4756 -1.1427 0
M  V30 2 Pb 3.8890 2.8962 -1.7536 0
M  V30 3 Pb 5.2324 2.0647 -0.5214 0
M  V30 4 Pb 4.7755 1.8097 -1.8544 0
M  V30 5 Pb 4.2928 3.1307 -0.4430 0
M  V30 6 Pd 2.9469 -4.0831 5.5317 0
M  V30 7 Pb 2.1400 -4.2100 4.9605 0
M  V30 8 Pb 3.7222 -3.8276 6.0964 0
M  V30 9 Pb 2.3463 -3.7590 6.2554 0
M  V30 10 Pb 3.5753 -4.2219 4.7632 0
M  V30 11 Pd -6.6088 2.8736 -3.4868 0
M  V30 12 Pb -6.8515 2.7389 -4.4408 0
M  V30 13 Pb -6.3784 2.9686 -2.5163 0
M  V30 14 Pb -7.1705 2.0858 -3.2591 0
M  V30 15 Pb -5.8802 3.5203 -3.7706 0
M  V30 16 Pd -4.0121 -3.5935 -1.6675 0
M  V30 17 Pb -4.8439 -3.1313 -1.9692 0
M  V30 18 Pb -3.2176 -4.0827 -1.3313 0
M  V30 19 Pb -4.3854 -3.5512 -0.7424 0
M  V30 20 Pb -3.5944 -3.5542 -2.6001 0
M  V30 21 Pd -3.2290 -0.2566 2.7134 0
M  V30 22 Pb -2.5907 -0.9798 2.9812 0
M  V30 23 Pb -3.8448 0.4472 2.3534 0
M  V30 24 Pb -3.8075 -0.9953 2.3592 0
M  V30 25 Pb -2.7249 0.4928 3.1580 0
M  V30 26 Pd 0.7511 -2.3396 -5.1372 0
M  V30 27 Pb 0.9789 -2.9882 -4.4226 0
M  V30 28 Pb 0.5755 -1.6853 -5.8767 0
M  V30 29 Pb 1.6978 -2.0242 -5.1132 0
M  V30 30 Pb -0.2251 -2.6366 -5.0837 0
M  V30 31 Pd -1.5421 2.6895 -6.2619 0
M  V30 32 Pb -0.8116 3.0057 -5.6553 0
M  V30 33 Pb -0.9379 2.0231 -6.7003 0
M  V30 34 Pb -2.2035 3.3086 -5.7942 0
M  V30 35 Pb -2.2487 2.4370 -6.9129 0
M  V30 36 Pd 1.3246 2.5252 5.4614 0
M  V30 37 Pb 0.3703 2.5444 5.1539 0
M  V30 38 Pb 2.2989 2.5072 5.7078 0
M  V30 39 Pb 1.0970 1.8189 6.1285 0
M  V30 40 Pb 1.5721 3.2082 4.7821 0
M  V30 41 Pd 5.7544 -0.3383 4.0168 0
M  V30 42 Pb 5.7191 -0.7975 4.9025 0
M  V30 43 Pb 5.9607 0.1104 3.1397 0
M  V30 44 Pb 5.6225 0.5328 4.4962 0
M  V30 45 Pb 5.7844 -1.2448 3.5845 0
M  V30 46 Ag 1.5011 -4.2178 4.5730 0
M  V30 47 Fe -0.3230 -2.8880 3.8341 0
M  V30 48 Ag -2.1657 -1.5921 3.0817 0
M  V30 49 Ag 3.3867 3.2342 -2.1965 0
M  V30 50 Fe 1.5553 3.1976 -3.7091 0
M  V30 51 Ag -0.2698 3.2995 -5.2264 0
M  V30 52 Ag -2.5676 -4.3981 -1.1810 0
M  V30 53 Fe -0.4738 -4.2342 -2.2386 0
M  V30 54 Ag 1.0465 -3.4559 -3.8553 0
M  V30 55 Ag -6.8832 2.6028 -5.1665 0
M  V30 56 Fe -5.1326 2.3401 -6.7147 0
M  V30 57 Ag -2.8577 2.3038 -7.3108 0
M  V30 58 Ag -7.4469 1.4080 -3.1259 0
M  V30 59 Fe -6.6080 -0.7499 -2.6178 0
M  V30 60 Ag -5.4870 -2.7788 -2.1199 0
M  V30 61 Ag 1.9313 -3.3571 6.7240 0
M  V30 62 Fe 1.3004 -1.0787 6.8646 0
M  V30 63 Ag 0.9413 1.2458 6.5822 0
M  V30 64 Ag 4.8666 1.3102 -2.4036 0
M  V30 65 Fe 3.7368 -0.2577 -3.7794 0
M  V30 66 Ag 2.3929 -1.7613 -5.0288 0
M  V30 67 Ag 4.0329 3.5967 0.0771 0
M  V30 68 Fe 2.9288 3.7622 2.1658 0
M  V30 69 Ag 1.8255 3.6736 4.2595 0
M  V30 70 Ag -6.2408 2.9950 -1.7773 0
M  V30 71 Fe -5.2572 2.0103 0.1503 0
M  V30 72 Ag -4.2612 0.9997 2.0581 0
M  V30 73 Ba -2.4794 1.1220 3.4997 0
M  V30 74 Ga -1.3509 1.7799 4.1966 0
M  V30 75 Ba -0.3400 2.5937 4.9103 0
M  V30 76 Ba -4.6765 -3.4678 -0.0576 0
M  V30 77 Ga -4.4444 -2.5138 1.0453 0
M  V30 78 Ba -4.2449 -1.5787 2.1703 0
M  V30 79 Ba -5.3050 3.9689 -4.0037 0
M  V30 80 Ga -4.0041 3.8265 -4.7312 0
M  V30 81 Ba -2.6896 3.7931 -5.4470 0
M  V30 82 Ba 4.0758 -4.2206 4.2001 0
M  V30 83 Ga 4.9382 -3.1180 3.7138 0
M  V30 84 Ba 5.7534 -1.9479 3.3103 0
M  V30 85 Ba 4.2808 -3.5257 6.4809 0
M  V30 86 Ga 5.0614 -2.3501 6.0773 0
M  V30 87 Ba 5.7590 -1.1706 5.5504 0
M  V30 88 Ba -3.3105 -3.5207 -3.3174 0
M  V30 89 Ga -2.0868 -3.1766 -4.1159 0
M  V30 90 Ba -0.9582 -2.8760 -5.0588 0
M  V30 91 Ba 3.0429 2.5501 5.8324 0
M  V30 92 Ga 4.2585 1.8398 5.3707 0
M  V30 93 Ba 5.4845 1.1405 4.9200 0
M  V30 94 Ba 5.7646 1.7760 -0.0737 0
M  V30 95 Ga 5.9079 1.0930 1.2327 0
M  V30 96 Ba 6.2401 0.4088 2.5031 0
M  V30 97 Ba 0.5254 -1.1962 -6.4472 0
M  V30 98 Ga -0.0170 0.1516 -6.7177 0
M  V30 99 Ba -0.5361 1.4945 -7.0509 0
M  V30 END ATOM
M  V30 BEGIN BOND
M  V30 1 1 1 2
M  V30 2 1 1 3
M  V30 3 1 1 4
M  V30 4 1 1 5
M  V30 5 1 6 7
M  V30 6 1 6 8
M  V30 7 1 6 9
M  V30 8 1 6 10
M  V30 9 1 11 12
M  V30 10 1 11 13
M  V30 11 1 11 14
M  V30 12 1 11 15
M  V30 13 1 16 17
M  V30 14 1 16 18
M  V30 15 1 16 19
M  V30 16 1 16 20
M  V30 17 1 21 22
M  V30 18 1 21 23
M  V30 19 1 21 24
M  V30 20 1 21 25
M  V30 21 1 26 27
M  V30 22 1 26 28
M  V30 23 1 26 29
M  V30 24 1 26 30
M  V30 25 1 31 32
M  V30 26 1 31 33
M  V30 27 1 31 34
M  V30 28 1 31 35
M  V30 29 1 36 37
M  V30 30 1 36 38
M  V30 31 1 36 39
M  V30 32 1 36 40
M  V30 33 1 41 42
M  V30 34 1 41 43
M  V30 35 1 41 44
M  V30 36 1 41 45
M  V30 37 1 46 47
M  V30 38 1 47 48
M  V30 39 1 49 50
M  V30 40 1 50 51
M  V30 41 1 52 53
M  V30 42 1 53 54
M  V30 43 1 55 56
M  V30 44 1 56 57
M  V30 45 1 58 59
M  V30 46 1 59 60
M  V30 47 1 61 62
M  V30 48 1 62 63
M  V30 49 1 64 65
M  V30 50 1 65 66
M  V30 51 1 67 68
M  V30 52 1 68 69
M  V30 53 1 70 71
M  V30 54 1 71 72
M  V30 55 1 73 74
M  V30 56 1 74 75
M  V30 57 1 76 77
M  V30 58 1 77 78
M  V30 59 1 79 80
M  V30 60 1 80 81
M  V30 61 1 82 83
M  V30 62 1 83 84
M  V30 63 1 85 86
M  V30 64 1 86 87
M  V30 65 1 88 89
M  V30 66 1 89 90
M  V30 67 1 91 92
M  V30 68 1 92 93
M  V30 69 1 94 95
M  V30 70 1 95 96
M  V30 71 1 97 98
M  V30 72 1 98 99
M  V30 73 1 2 49
M  V30 74 1 3 94
M  V30 75 1 4 64
M  V30 76 1 5 67
M  V30 77 1 7 46
M  V30 78 1 8 85
M  V30 79 1 9 61
M  V30 80 1 10 82
M  V30 81 1 12 55
M  V30 82 1 13 70
M  V30 83 1 14 58
M  V30 84 1 15 79
M  V30 85 1 17 60
M  V30 86 1 18 52
M  V30 87 1 19 76
M  V30 88 1 20 88
M  V30 89 1 22 48
M  V30 90 1 23 72
M  V30 91 1 24 78
M  V30 92 1 25 73
M  V30 93 1 27 54
M  V30 94 1 28 97
M  V30 95 1 29 66
M  V30 96 1 30 90
M  V30 97 1 32 51
M  V30 98 1 33 99
M  V30 99 1 34 81
M  V30 100 1 35 57
M  V30 101 1 37 75
M  V30 102 1 38 91
M  V30 103 1 39 63
M  V30 104 1 40 69
M  V30 105 1 42 87
M  V30 106 1 43 96
M  V30 107 1 44 93
M  V30 108 1 45 84
M  V30 END BOND
M  V30 END CTAB
M  END

$$$$
