
     RDKit          3D

  0  0  0  0  0  0  0  0  0  0999 V3000
M  V30 BEGIN CTAB
M  V30 COUNTS 99 108 0 0 0
M  V30 BEGIN ATOM
M  V30 1 Pd -0.1100 4.7491 -2.8368 0
M  V30 2 Pb 0.5658 4.3757 -3.4715 0
M  V30 3 Pb 0.6538 5.1887 -2.3603 0
M  V30 4 Pb -0.8660 4.3415 -3.3556 0
M  V30 5 Pb -0.7700 5.0687 -2.1538 0
M  V30 6 Pd 4.1764 1.2313 6.4339 0
M  V30 7 Pb 3.7537 0.3253 6.4060 0
M  V30 8 Pb 4.5673 2.1635 6.4143 0
M  V30 9 Pb 3.3811 1.5756 6.9297 0
M  V30 10 Pb 4.9416 0.9326 5.8689 0
M  V30 11 Pd 0.4325 -5.5180 -0.7660 0
M  V30 12 Pb 0.8025 -5.2944 -1.6889 0
M  V30 13 Pb 0.1192 -5.7640 0.1539 0
M  V30 14 Pb -0.3308 -6.0233 -1.1797 0
M  V30 15 Pb 1.2039 -5.0429 -0.3579 0
M  V30 16 Pd -4.7024 -4.8200 -3.0645 0
M  V30 17 Pb -4.0470 -5.5510 -2.8588 0
M  V30 18 Pb -4.5482 -4.9292 -4.0451 0
M  V30 19 Pb -4.8698 -4.6930 -2.0903 0
M  V30 20 Pb -5.3375 -4.0728 -3.2691 0
M  V30 21 Pd -1.7263 -3.1400 3.7996 0
M  V30 22 Pb -0.8981 -2.9630 4.3351 0
M  V30 23 Pb -1.3610 -4.0317 3.5271 0
M  V30 24 Pb -2.5495 -3.3441 3.2763 0
M  V30 25 Pb -2.1355 -2.2579 4.0421 0
M  V30 26 Pd -4.0842 -1.0477 -6.3847 0
M  V30 27 Pb -4.1410 -2.0221 -6.5981 0
M  V30 28 Pb -3.2326 -1.0091 -6.8995 0
M  V30 29 Pb -3.9932 -0.0820 -6.1328 0
M  V30 30 Pb -4.8969 -1.1447 -5.8118 0
M  V30 31 Pd 3.0169 -1.7080 -4.6729 0
M  V30 32 Pb 3.2189 -0.7461 -4.8470 0
M  V30 33 Pb 2.4493 -1.6880 -5.4920 0
M  V30 34 Pb 3.5554 -1.6983 -3.8381 0
M  V30 35 Pb 2.7031 -2.6509 -4.4556 0
M  V30 36 Pd -2.0175 4.6174 4.5347 0
M  V30 37 Pb -2.5475 3.7698 4.5283 0
M  V30 38 Pb -1.4220 5.4181 4.5358 0
M  V30 39 Pb -1.6061 4.3207 5.3949 0
M  V30 40 Pb -2.3603 4.8939 3.6356 0
M  V30 41 Pd 4.9961 5.7352 2.9572 0
M  V30 42 Pb 5.1705 5.4264 3.9035 0
M  V30 43 Pb 4.7572 5.9898 2.0208 0
M  V30 44 Pb 4.2527 6.3176 3.2795 0
M  V30 45 Pb 5.6917 5.0896 2.6516 0
M  V30 46 Ag 3.3989 -0.3351 6.3754 0
M  V30 47 Fe 1.5634 -1.5991 5.5503 0
M  V30 48 Ag -0.2666 -2.8770 4.7346 0
M  V30 49 Ag 1.1098 4.0700 -3.8868 0
M  V30 50 Fe 2.2555 2.0817 -4.4941 0
M  V30 51 Ag 3.2657 -0.0110 -4.9782 0
M  V30 52 Ag -2.5075 -1.6187 4.1802 0
M  V30 53 Fe -2.6904 0.7434 4.3661 0
M  V30 54 Ag -2.8904 3.1036 4.5597 0
M  V30 55 Ag -4.9899 -4.5824 -1.3618 0
M  V30 56 Fe -4.1067 -4.0496 0.7729 0
M  V30 57 Ag -3.1584 -3.5117 2.8783 0
M  V30 58 Ag 1.8008 -4.6466 -0.1706 0
M  V30 59 Fe 3.1436 -3.1031 -1.3397 0
M  V30 60 Ag 3.8408 -1.7804 -3.1605 0
M  V30 61 Ag 5.4861 0.8847 5.3648 0
M  V30 62 Fe 6.1823 2.4537 3.7430 0
M  V30 63 Ag 6.1364 4.4999 2.5651 0
M  V30 64 Ag 2.7604 1.8604 7.2357 0
M  V30 65 Fe 0.7211 2.9694 6.7440 0
M  V30 66 Ag -1.2458 4.0691 6.0006 0
M  V30 67 Ag -1.4480 4.0733 -3.7520 0
M  V30 68 Fe -2.6591 2.3358 -4.8337 0
M  V30 69 Ag -3.9119 0.6380 -5.9310 0
M  V30 70 Ag -1.2750 5.2620 -1.6309 0
M  V30 71 Fe -1.9552 5.2138 0.6464 0
M  V30 72 Ag -2.5541 5.1177 2.9449 0
M  V30 73 Ag -0.9194 5.9714 4.5204 0
M  V30 74 Fe 1.3511 6.4697 4.0484 0
M  V30 75 Ag 3.6506 6.6948 3.5124 0
M  V30 76 Ag 1.2618 5.5182 -2.0649 0
M  V30 77 Fe 2.8868 5.8428 -0.3620 0
M  V30 78 Ag 4.5147 6.1763 1.3364 0
M  V30 79 Ag -2.5622 -1.0426 -7.2246 0
M  V30 80 Fe -0.2517 -1.3231 -6.7771 0
M  V30 81 Ag 1.9946 -1.6152 -6.0797 0
M  V30 82 Ba -4.4550 -4.9638 -4.7871 0
M  V30 83 Ga -4.3060 -3.8959 -5.7907 0
M  V30 84 Ba -4.1633 -2.7610 -6.7189 0
M  V30 85 Ba 4.8668 2.8629 6.4101 0
M  V30 86 Ga 5.0611 4.0055 5.4759 0
M  V30 87 Ba 5.3006 5.1974 4.6168 0
M  V30 88 Ba 1.1027 -5.1952 -2.3892 0
M  V30 89 Ga 1.7686 -4.2085 -3.2953 0
M  V30 90 Ba 2.4413 -3.3603 -4.3280 0
M  V30 91 Ba -5.7948 -3.5008 -3.4391 0
M  V30 92 Ga -5.6777 -2.3739 -4.3847 0
M  V30 93 Ba -5.4752 -1.2810 -5.3554 0
M  V30 94 Ba -0.8827 -6.4341 -1.4893 0
M  V30 95 Ga -2.2197 -6.2319 -2.0904 0
M  V30 96 Ba -3.5609 -6.1046 -2.7030 0
M  V30 97 Ba -0.0700 -5.9664 0.8537 0
M  V30 98 Ga -0.5987 -5.3180 2.0718 0
M  V30 99 Ba -1.1254 -4.7124 3.3127 0
M  V30 END ATOM
M  V30 BEGIN BOND
M  V30 1 1 1 2
M  V30 2 1 1 3
M  V30 3 1 1 4
M  V30 4 1 1 5
M  V30 5 1 6 7
M  V30 6 1 6 8
M  V30 7 1 6 9
M  V30 8 1 6 10
M  V30 9 1 11 12
M  V30 10 1 11 13
M  V30 11 1 11 14
M  V30 12 1 11 15
M  V30 13 1 16 17
M  V30 14 1 16 18
M  V30 15 1 16 19
M  V30 16 1 16 20
M  V30 17 1 21 22
M  V30 18 1 21 23
M  V30 19 1 21 24
M  V30 20 1 21 25
M  V30 21 1 26 27
M  V30 22 1 26 28
M  V30 23 1 26 29
M  V30 24 1 26 30
M  V30 25 1 31 32
M  V30 26 1 31 33
M  V30 27 1 31 34
M  V30 28 1 31 35
M  V30 29 1 36 37
M  V30 30 1 36 38
M  V30 31 1 36 39
M  V30 32 1 36 40
M  V30 33 1 41 42
M  V30 34 1 41 43
M  V30 35 1 41 44
M  V30 36 1 41 45
M  V30 37 1 46 47
M  V30 38 1 47 48
M  V30 39 1 49 50
M  V30 40 1 50 51
M  V30 41 1 52 53
M  V30 42 1 53 54
M  V30 43 1 55 56
M  V30 44 1 56 57
M  V30 45 1 58 59
M  V30 46 1 59 60
M  V30 47 1 61 62
M  V30 48 1 62 63
M  V30 49 1 64 65
M  V30 50 1 65 66
M  V30 51 1 67 68
M  V30 52 1 68 69
M  V30 53 1 70 71
M  V30 54 1 71 72
M  V30 55 1 73 74
M  V30 56 1 74 75
M  V30 57 1 76 77
M  V30 58 1 77 78
M  V30 59 1 79 80
M  V30 60 1 80 81
M  V30 61 1 82 83
M  V30 62 1 83 84
M  V30 63 1 85 86
M  V30 64 1 86 87
M  V30 65 1 88 89
M  V30 66 1 89 90
M  V30 67 1 91 92
M  V30 68 1 92 93
M  V30 69 1 94 95
M  V30 70 1 95 96
M  V30 71 1 97 98
M  V30 72 1 98 99
M  V30 73 1 2 49
M  V30 74 1 3 76
M  V30 75 1 4 67
M  V30 76 1 5 70
M  V30 77 1 7 46
M  V30 78 1 8 85
M  V30 79 1 9 64
M  V30 80 1 10 61
M  V30 81 1 12 88
M  V30 82 1 13 97
M  V30 83 1 14 94
M  V30 84 1 15 58
M  V30 85 1 17 96
M  V30 86 1 18 82
M  V30 87 1 19 55
M  V30 88 1 20 91
M  V30 89 1 22 48
M  V30 90 1 23 99
M  V30 91 1 24 57
M  V30 92 1 25 52
M  V30 93 1 27 84
M  V30 94 1 28 79
M  V30 95 1 29 69
M  V30 96 1 30 93
M  V30 97 1 32 51
M  V30 98 1 33 81
M  V30 99 1 34 60
M  V30 100 1 35 90
M  V30 101 1 37 54
M  V30 102 1 38 73
M  V30 103 1 39 66
M  V30 104 1 40 72
M  V30 105 1 42 87
M  V30 106 1 43 78
M  V30 107 1 44 75
M  V30 108 1 45 63
M  V30 END BOND
M  V30 END CTAB
M  END

$$$$
