
     RDKit          3D

  0  0  0  0  0  0  0  0  0  0999 V3000
M  V30 BEGIN CTAB
M  V30 COUNTS 99 108 0 0 0
M  V30 BEGIN ATOM
M  V30 1 Pd 0.6584 5.6261 3.0018 0
M  V30 2 Pb 0.1873 5.2701 3.8110 0
M  V30 3 Pb 1.2418 6.2212 3.5559 0
M  V30 4 Pb 1.1409 5.9546 2.1910 0
M  V30 5 Pb 0.1641 4.9802 2.4261 0
M  V30 6 Pd 5.4598 5.3270 2.5347 0
M  V30 7 Pb 5.9457 4.9137 3.3001 0
M  V30 8 Pb 4.9223 5.7080 1.7861 0
M  V30 9 Pb 5.0536 6.0121 3.1416 0
M  V30 10 Pb 5.7720 4.5695 1.9577 0
M  V30 11 Pd -0.2654 -5.2265 -0.3615 0
M  V30 12 Pb -1.1256 -5.2820 0.1512 0
M  V30 13 Pb 0.6058 -5.0956 -0.8361 0
M  V30 14 Pb -0.6472 -5.6322 -1.1936 0
M  V30 15 Pb 0.1213 -4.8252 0.4627 0
M  V30 16 Pd -4.6730 -4.4552 -6.5149 0
M  V30 17 Pb -5.3345 -3.7772 -6.8295 0
M  V30 18 Pb -5.1734 -4.5660 -5.6608 0
M  V30 19 Pb -4.1037 -4.2255 -7.3048 0
M  V30 20 Pb -3.9925 -5.0850 -6.1433 0
M  V30 21 Pd -0.3923 0.6371 4.7437 0
M  V30 22 Pb -1.1777 0.6871 4.1209 0
M  V30 23 Pb 0.3837 0.5713 5.3707 0
M  V30 24 Pb -0.1255 -0.2589 4.3994 0
M  V30 25 Pb -0.6128 1.5524 5.0873 0
M  V30 26 Pd 4.7160 0.6006 3.7607 0
M  V30 27 Pb 5.3283 1.2378 4.2264 0
M  V30 28 Pb 4.1027 -0.0573 3.3163 0
M  V30 29 Pb 5.1518 0.8572 2.8960 0
M  V30 30 Pb 4.2478 0.4290 4.6262 0
M  V30 31 Pd -4.0074 -1.6505 0.4534 0
M  V30 32 Pb -3.6590 -0.9974 1.1345 0
M  V30 33 Pb -4.1735 -0.8782 -0.1622 0
M  V30 34 Pb -3.8048 -2.4692 0.9928 0
M  V30 35 Pb -4.4532 -2.2637 -0.1986 0
M  V30 36 Pd 1.7936 -0.8128 -1.0089 0
M  V30 37 Pb 1.6317 -0.5342 -1.9555 0
M  V30 38 Pb 2.2511 -1.6442 -1.3226 0
M  V30 39 Pb 1.2423 -0.0398 -0.6975 0
M  V30 40 Pb 1.9638 -1.0905 -0.0619 0
M  V30 41 Pd -3.2470 -0.0062 -6.7244 0
M  V30 42 Pb -2.9646 -0.6111 -7.4711 0
M  V30 43 Pb -4.1961 -0.1968 -6.9677 0
M  V30 44 Pb -3.5453 0.4881 -5.9073 0
M  V30 45 Pb -2.2951 0.1373 -6.4568 0
M  V30 46 Ag -0.8880 -5.9276 -1.8412 0
M  V30 47 Fe -2.1811 -5.7717 -3.8279 0
M  V30 48 Ag -3.5080 -5.5287 -5.7832 0
M  V30 49 Ag 1.5032 -0.3174 -2.6618 0
M  V30 50 Fe -0.0158 -0.0340 -4.4647 0
M  V30 51 Ag -1.5875 0.2224 -6.2259 0
M  V30 52 Ag -4.2674 -0.3260 -0.6632 0
M  V30 53 Fe -4.0516 0.3235 -2.9388 0
M  V30 54 Ag -3.7649 0.7823 -5.2527 0
M  V30 55 Ag -0.1362 4.4671 1.9745 0
M  V30 56 Fe 0.2942 2.4866 0.7407 0
M  V30 57 Ag 0.7815 0.5079 -0.4751 0
M  V30 58 Ag 0.3706 -4.5203 1.0950 0
M  V30 59 Fe 0.2526 -2.7172 2.6288 0
M  V30 60 Ag 0.1375 -0.9181 4.1675 0
M  V30 61 Ag -5.4658 -4.5887 -4.9745 0
M  V30 62 Fe -5.1983 -3.6897 -2.7947 0
M  V30 63 Ag -4.8274 -2.7219 -0.6598 0
M  V30 64 Ba 5.9638 3.9547 1.5688 0
M  V30 65 Ga 5.7498 2.5234 1.8719 0
M  V30 66 Ba 5.4830 1.1267 2.2770 0
M  V30 67 Ba 1.7494 6.6399 3.9178 0
M  V30 68 Ga 3.2218 6.6171 3.8023 0
M  V30 69 Ba 4.6774 6.4854 3.5881 0
M  V30 70 Ba -3.6774 -3.9470 -7.8565 0
M  V30 71 Ga -3.1933 -2.5587 -7.9984 0
M  V30 72 Ba -2.7974 -1.1356 -7.9831 0
M  V30 73 Ba 1.5414 6.1794 1.5994 0
M  V30 74 Ga 2.9925 6.1174 1.3636 0
M  V30 75 Ba 4.4554 5.9880 1.2748 0
M  V30 76 Ba 0.9759 0.4805 5.8215 0
M  V30 77 Ga 2.4273 0.4087 5.5744 0
M  V30 78 Ba 3.8675 0.3470 5.2662 0
M  V30 79 Ba 6.2701 4.5429 3.8603 0
M  V30 80 Ga 6.0720 3.1418 4.2610 0
M  V30 81 Ba 5.7845 1.7303 4.5581 0
M  V30 82 Ba -1.7190 -5.2592 0.6156 0
M  V30 83 Ga -2.7068 -4.2160 0.9711 0
M  V30 84 Ba -3.6771 -3.1464 1.2946 0
M  V30 85 Ba 3.6298 -0.5778 3.0466 0
M  V30 86 Ga 2.8787 -0.9086 1.8176 0
M  V30 87 Ba 2.0888 -1.3266 0.6404 0
M  V30 88 Ba -1.7835 0.7766 3.6824 0
M  V30 89 Ga -2.5778 0.0873 2.6403 0
M  V30 90 Ba -3.4986 -0.4241 1.6003 0
M  V30 91 Ba -0.1715 4.9845 4.4068 0
M  V30 92 Ga -0.4696 3.6156 4.8773 0
M  V30 93 Ba -0.7643 2.2439 5.3419 0
M  V30 94 Ba -5.7751 -3.2129 -7.0449 0
M  V30 95 Ga -5.4232 -1.7871 -7.1266 0
M  V30 96 Ba -4.8884 -0.4170 -7.1449 0
M  V30 97 Ba 1.2592 -4.9418 -1.1720 0
M  V30 98 Ga 1.9446 -3.6533 -1.3867 0
M  V30 99 Ba 2.5266 -2.3066 -1.5398 0
M  V30 END ATOM
M  V30 BEGIN BOND
M  V30 1 1 1 2
M  V30 2 1 1 3
M  V30 3 1 1 4
M  V30 4 1 1 5
M  V30 5 1 6 7
M  V30 6 1 6 8
M  V30 7 1 6 9
M  V30 8 1 6 10
M  V30 9 1 11 12
M  V30 10 1 11 13
M  V30 11 1 11 14
M  V30 12 1 11 15
M  V30 13 1 16 17
M  V30 14 1 16 18
M  V30 15 1 16 19
M  V30 16 1 16 20
M  V30 17 1 21 22
M  V30 18 1 21 23
M  V30 19 1 21 24
M  V30 20 1 21 25
M  V30 21 1 26 27
M  V30 22 1 26 28
M  V30 23 1 26 29
M  V30 24 1 26 30
M  V30 25 1 31 32
M  V30 26 1 31 33
M  V30 27 1 31 34
M  V30 28 1 31 35
M  V30 29 1 36 37
M  V30 30 1 36 38
M  V30 31 1 36 39
M  V30 32 1 36 40
M  V30 33 1 41 42
M  V30 34 1 41 43
M  V30 35 1 41 44
M  V30 36 1 41 45
M  V30 37 1 46 47
M  V30 38 1 47 48
M  V30 39 1 49 50
M  V30 40 1 50 51
M  V30 41 1 52 53
M  V30 42 1 53 54
M  V30 43 1 55 56
M  V30 44 1 56 57
M  V30 45 1 58 59
M  V30 46 1 59 60
M  V30 47 1 61 62
M  V30 48 1 62 63
M  V30 49 1 64 65
M  V30 50 1 65 66
M  V30 51 1 67 68
M  V30 52 1 68 69
M  V30 53 1 70 71
M  V30 54 1 71 72
M  V30 55 1 73 74
M  V30 56 1 74 75
M  V30 57 1 76 77
M  V30 58 1 77 78
M  V30 59 1 79 80
M  V30 60 1 80 81
M  V30 61 1 82 83
M  V30 62 1 83 84
M  V30 63 1 85 86
M  V30 64 1 86 87
M  V30 65 1 88 89
M  V30 66 1 89 90
M  V30 67 1 91 92
M  V30 68 1 92 93
M  V30 69 1 94 95
M  V30 70 1 95 96
M  V30 71 1 97 98
M  V30 72 1 98 99
M  V30 73 1 2 91
M  V30 74 1 3 67
M  V30 75 1 4 73
M  V30 76 1 5 55
M  V30 77 1 7 79
M  V30 78 1 8 75
M  V30 79 1 9 69
M  V30 80 1 10 64
M  V30 81 1 12 82
M  V30 82 1 13 97
M  V30 83 1 14 46
M  V30 84 1 15 58
M  V30 85 1 17 94
M  V30 86 1 18 61
M  V30 87 1 19 70
M  V30 88 1 20 48
M  V30 89 1 22 88
M  V30 90 1 23 76
M  V30 91 1 24 60
M  V30 92 1 25 93
M  V30 93 1 27 81
M  V30 94 1 28 85
M  V30 95 1 29 66
M  V30 96 1 30 78
M  V30 97 1 32 90
M  V30 98 1 33 52
M  V30 99 1 34 84
M  V30 100 1 35 63
M  V30 101 1 37 49
M  V30 102 1 38 99
M  V30 103 1 39 57
M  V30 104 1 40 87
M  V30 105 1 42 72
M  V30 106 1 43 96
M  V30 107 1 44 54
M  V30 108 1 45 51
M  V30 END BOND
M  V30 END CTAB
M  END

$$$$
