
     RDKit          3D

  0  0  0  0  0  0  0  0  0  0999 V3000
M  V30 BEGIN CTAB
M  V30 COUNTS 99 108 0 0 0
M  V30 BEGIN ATOM
M  V30 1 Pd 3.3311 1.6242 -1.7179 0
M  V30 2 Pb 3.8511 2.4312 -1.4377 0
M  V30 3 Pb 2.6849 0.9132 -1.9985 0
M  V30 4 Pb 3.1034 2.0715 -2.5806 0
M  V30 5 Pb 3.4797 1.2163 -0.8103 0
M  V30 6 Pd 0.5592 -8.1107 -2.7573 0
M  V30 7 Pb -0.0742 -8.0042 -1.9904 0
M  V30 8 Pb 1.2101 -8.1005 -3.5162 0
M  V30 9 Pb 1.3010 -8.2729 -2.1102 0
M  V30 10 Pb -0.1148 -7.7480 -3.3992 0
M  V30 11 Pd -2.5206 3.6276 5.5511 0
M  V30 12 Pb -2.7694 4.5373 5.2256 0
M  V30 13 Pb -2.2226 2.7211 5.8380 0
M  V30 14 Pb -3.4221 3.2637 5.3130 0
M  V30 15 Pb -1.6042 3.9941 5.7162 0
M  V30 16 Pd -4.7350 0.4809 1.4437 0
M  V30 17 Pb -4.9557 0.9895 2.2812 0
M  V30 18 Pb -4.5900 -0.0457 0.6164 0
M  V30 19 Pb -4.7383 -0.3835 1.9545 0
M  V30 20 Pb -4.7542 1.3428 0.8888 0
M  V30 21 Pd -1.2916 -3.6434 3.3380 0
M  V30 22 Pb -1.4004 -4.4151 2.7064 0
M  V30 23 Pb -1.2148 -2.9211 4.0214 0
M  V30 24 Pb -2.2626 -3.4109 3.2339 0
M  V30 25 Pb -0.3242 -3.8602 3.4944 0
M  V30 26 Pd -2.8722 3.9264 -3.1982 0
M  V30 27 Pb -3.0802 3.0074 -3.5066 0
M  V30 28 Pb -2.6054 4.8485 -2.9155 0
M  V30 29 Pb -2.1360 3.9705 -3.8696 0
M  V30 30 Pb -3.5172 3.8084 -2.4143 0
M  V30 31 Pd 1.3567 7.8215 1.5388 0
M  V30 32 Pb 2.1978 7.4863 1.1122 0
M  V30 33 Pb 0.9378 8.0242 0.6563 0
M  V30 34 Pb 1.6595 7.4899 2.4307 0
M  V30 35 Pb 0.4833 8.0429 1.9676 0
M  V30 36 Pd 4.0278 -3.1759 1.2370 0
M  V30 37 Pb 3.5190 -3.4328 2.0615 0
M  V30 38 Pb 4.5162 -2.9254 0.4030 0
M  V30 39 Pb 4.0954 -4.1509 1.0194 0
M  V30 40 Pb 3.9417 -2.1975 1.4316 0
M  V30 41 Pd 2.2564 -2.4607 -5.5743 0
M  V30 42 Pb 2.6709 -3.2505 -6.0205 0
M  V30 43 Pb 1.8146 -1.8154 -4.9511 0
M  V30 44 Pb 3.1386 -2.1944 -5.1975 0
M  V30 45 Pb 1.3673 -2.8489 -5.8163 0
M  V30 46 Ag -0.5228 -7.8686 -1.4040 0
M  V30 47 Fe -1.0185 -6.4403 0.4307 0
M  V30 48 Ag -1.5188 -5.0149 2.2664 0
M  V30 49 Ag 4.1463 3.0874 -1.2250 0
M  V30 50 Fe 3.5986 5.1688 -0.2190 0
M  V30 51 Ag 2.8010 7.1564 0.8098 0
M  V30 52 Ag -4.4908 -0.3372 -0.0547 0
M  V30 53 Fe -3.8786 0.5859 -2.1297 0
M  V30 54 Ag -3.2267 2.2919 -3.6119 0
M  V30 55 Ag -0.9269 4.3147 5.7590 0
M  V30 56 Fe 0.5563 5.7367 4.5689 0
M  V30 57 Ag 1.7532 7.1673 3.0998 0
M  V30 58 Ag -0.4969 -7.3379 -3.8954 0
M  V30 59 Fe -0.1249 -5.2942 -5.0436 0
M  V30 60 Ag 0.7449 -3.2583 -5.8996 0
M  V30 61 Ag 1.6681 -7.9641 -4.0932 0
M  V30 62 Fe 2.4496 -6.1020 -5.3377 0
M  V30 63 Ag 2.8925 -3.9395 -6.2050 0
M  V30 64 Ag -2.8440 5.2292 4.9530 0
M  V30 65 Fe -1.6586 6.8112 3.6433 0
M  V30 66 Ag -0.1803 8.0968 2.3073 0
M  V30 67 Ag 1.8707 -8.2481 -1.6262 0
M  V30 68 Fe 3.0736 -6.6658 -0.3272 0
M  V30 69 Ag 4.0999 -4.8857 0.8634 0
M  V30 70 Ag 2.8164 2.4004 -3.1873 0
M  V30 71 Fe 0.7397 3.2499 -3.9528 0
M  V30 72 Ag -1.5015 3.9574 -4.2630 0
M  V30 73 Ag 4.8347 -2.7056 -0.2373 0
M  V30 74 Fe 4.4690 -2.3272 -2.5490 0
M  V30 75 Ag 3.7541 -2.0744 -4.7949 0
M  V30 76 Ag -2.3265 5.5280 -2.7586 0
M  V30 77 Fe -0.9170 6.8844 -1.4119 0
M  V30 78 Ag 0.5215 8.0953 0.0386 0
M  V30 79 Ag -1.9756 2.0400 6.0173 0
M  V30 80 Fe -1.5692 -0.1867 5.3101 0
M  V30 81 Ag -1.1798 -2.4016 4.5577 0
M  V30 82 Ba 0.3929 -3.9984 3.6807 0
M  V30 83 Ga 1.7556 -3.8176 3.1351 0
M  V30 84 Ba 3.1532 -3.6772 2.6719 0
M  V30 85 Ba -4.7733 -1.0517 2.3020 0
M  V30 86 Ga -3.8509 -2.1233 2.7398 0
M  V30 87 Ba -2.9957 -3.2380 3.2055 0
M  V30 88 Ba -4.8316 2.0034 0.4923 0
M  V30 89 Ga -4.3456 2.8011 -0.6843 0
M  V30 90 Ba -3.9887 3.7325 -1.8079 0
M  V30 91 Ba -4.0925 2.9899 5.1143 0
M  V30 92 Ga -4.6052 2.1663 3.9983 0
M  V30 93 Ba -5.1762 1.3470 2.9079 0
M  V30 94 Ba 3.5684 0.9802 -0.0975 0
M  V30 95 Ga 3.7291 -0.2611 0.6923 0
M  V30 96 Ba 3.8936 -1.4568 1.5492 0
M  V30 97 Ba 2.1204 0.4859 -2.2518 0
M  V30 98 Ga 1.8416 -0.4707 -3.3423 0
M  V30 99 Ba 1.4745 -1.4320 -4.4022 0
M  V30 END ATOM
M  V30 BEGIN BOND
M  V30 1 1 1 2
M  V30 2 1 1 3
M  V30 3 1 1 4
M  V30 4 1 1 5
M  V30 5 1 6 7
M  V30 6 1 6 8
M  V30 7 1 6 9
M  V30 8 1 6 10
M  V30 9 1 11 12
M  V30 10 1 11 13
M  V30 11 1 11 14
M  V30 12 1 11 15
M  V30 13 1 16 17
M  V30 14 1 16 18
M  V30 15 1 16 19
M  V30 16 1 16 20
M  V30 17 1 21 22
M  V30 18 1 21 23
M  V30 19 1 21 24
M  V30 20 1 21 25
M  V30 21 1 26 27
M  V30 22 1 26 28
M  V30 23 1 26 29
M  V30 24 1 26 30
M  V30 25 1 31 32
M  V30 26 1 31 33
M  V30 27 1 31 34
M  V30 28 1 31 35
M  V30 29 1 36 37
M  V30 30 1 36 38
M  V30 31 1 36 39
M  V30 32 1 36 40
M  V30 33 1 41 42
M  V30 34 1 41 43
M  V30 35 1 41 44
M  V30 36 1 41 45
M  V30 37 1 46 47
M  V30 38 1 47 48
M  V30 39 1 49 50
M  V30 40 1 50 51
M  V30 41 1 52 53
M  V30 42 1 53 54
M  V30 43 1 55 56
M  V30 44 1 56 57
M  V30 45 1 58 59
M  V30 46 1 59 60
M  V30 47 1 61 62
M  V30 48 1 62 63
M  V30 49 1 64 65
M  V30 50 1 65 66
M  V30 51 1 67 68
M  V30 52 1 68 69
M  V30 53 1 70 71
M  V30 54 1 71 72
M  V30 55 1 73 74
M  V30 56 1 74 75
M  V30 57 1 76 77
M  V30 58 1 77 78
M  V30 59 1 79 80
M  V30 60 1 80 81
M  V30 61 1 82 83
M  V30 62 1 83 84
M  V30 63 1 85 86
M  V30 64 1 86 87
M  V30 65 1 88 89
M  V30 66 1 89 90
M  V30 67 1 91 92
M  V30 68 1 92 93
M  V30 69 1 94 95
M  V30 70 1 95 96
M  V30 71 1 97 98
M  V30 72 1 98 99
M  V30 73 1 2 49
M  V30 74 1 3 97
M  V30 75 1 4 70
M  V30 76 1 5 94
M  V30 77 1 7 46
M  V30 78 1 8 61
M  V30 79 1 9 67
M  V30 80 1 10 58
M  V30 81 1 12 64
M  V30 82 1 13 79
M  V30 83 1 14 91
M  V30 84 1 15 55
M  V30 85 1 17 93
M  V30 86 1 18 52
M  V30 87 1 19 85
M  V30 88 1 20 88
M  V30 89 1 22 48
M  V30 90 1 23 81
M  V30 91 1 24 87
M  V30 92 1 25 82
M  V30 93 1 27 54
M  V30 94 1 28 76
M  V30 95 1 29 72
M  V30 96 1 30 90
M  V30 97 1 32 51
M  V30 98 1 33 78
M  V30 99 1 34 57
M  V30 100 1 35 66
M  V30 101 1 37 84
M  V30 102 1 38 73
M  V30 103 1 39 69
M  V30 104 1 40 96
M  V30 105 1 42 63
M  V30 106 1 43 99
M  V30 107 1 44 75
M  V30 108 1 45 60
M  V30 END BOND
M  V30 END CTAB
M  END

$$$$
