
     RDKit          3D

  0  0  0  0  0  0  0  0  0  0999 V3000
M  V30 BEGIN CTAB
M  V30 COUNTS 99 108 0 0 0
M  V30 BEGIN ATOM
M  V30 1 Pd -2.4004 -1.7225 2.3886 0
M  V30 2 Pb -2.3977 -1.3279 3.3085 0
M  V30 3 Pb -1.5440 -1.2243 2.2666 0
M  V30 4 Pb -3.2718 -2.1985 2.5357 0
M  V30 5 Pb -2.3577 -2.1263 1.4719 0
M  V30 6 Pd 8.1787 -3.4208 -1.1066 0
M  V30 7 Pb 7.9818 -2.8865 -1.9293 0
M  V30 8 Pb 8.3179 -3.9135 -0.2501 0
M  V30 9 Pb 7.6634 -4.2021 -1.4552 0
M  V30 10 Pb 8.5058 -2.6041 -0.6319 0
M  V30 11 Pd -0.5034 5.2915 -0.6043 0
M  V30 12 Pb -0.0200 4.9014 0.1836 0
M  V30 13 Pb 0.2661 5.0730 -1.2101 0
M  V30 14 Pb -1.0121 5.6601 -1.3858 0
M  V30 15 Pb -1.2495 5.5522 0.0085 0
M  V30 16 Pd -4.2351 3.2679 -3.8861 0
M  V30 17 Pb -3.8094 4.1733 -3.8376 0
M  V30 18 Pb -4.6347 2.3492 -3.8680 0
M  V30 19 Pb -3.5353 2.9682 -4.5312 0
M  V30 20 Pb -4.9515 3.5327 -3.2440 0
M  V30 21 Pd 2.8993 0.4529 -5.3501 0
M  V30 22 Pb 3.8311 0.1581 -5.1294 0
M  V30 23 Pb 3.0722 1.3769 -5.0106 0
M  V30 24 Pb 1.9874 0.7510 -5.6261 0
M  V30 25 Pb 2.6450 -0.4893 -5.5596 0
M  V30 26 Pd -7.4033 -0.4703 1.2797 0
M  V30 27 Pb -7.2390 -0.7768 0.3422 0
M  V30 28 Pb -7.4544 -0.0671 2.1886 0
M  V30 29 Pb -7.0558 -1.3251 1.6668 0
M  V30 30 Pb -7.6335 0.4220 0.8972 0
M  V30 31 Pd -2.2707 3.3159 4.0064 0
M  V30 32 Pb -2.0627 2.4609 4.4840 0
M  V30 33 Pb -3.2072 3.1905 4.3256 0
M  V30 34 Pb -2.5319 4.1327 3.4937 0
M  V30 35 Pb -1.3382 3.4129 3.6508 0
M  V30 36 Pd 0.9390 -4.9302 -0.9714 0
M  V30 37 Pb 0.9306 -4.7958 -1.9616 0
M  V30 38 Pb 0.9983 -5.0015 0.0266 0
M  V30 39 Pb 1.8438 -5.3452 -1.0923 0
M  V30 40 Pb 0.0411 -4.4872 -0.9011 0
M  V30 41 Pd 4.8142 -1.8265 4.3005 0
M  V30 42 Pb 5.4867 -2.5494 4.4322 0
M  V30 43 Pb 4.1421 -1.1533 4.0019 0
M  V30 44 Pb 4.0697 -2.4885 4.3811 0
M  V30 45 Pb 5.5724 -1.2311 4.0325 0
M  V30 46 Ag 7.8113 -2.4602 -2.5232 0
M  V30 47 Fe 6.1679 -1.2699 -3.7602 0
M  V30 48 Ag 4.5357 -0.0742 -5.0069 0
M  V30 49 Ag 2.3992 -1.1939 -5.6125 0
M  V30 50 Fe 1.6683 -3.0118 -4.2735 0
M  V30 51 Ag 0.9947 -4.6500 -2.6938 0
M  V30 52 Ag -3.0164 2.7285 -5.0135 0
M  V30 53 Fe -0.8482 1.8572 -5.4256 0
M  V30 54 Ag 1.3157 0.9854 -5.8585 0
M  V30 55 Ag -4.9498 1.6731 -3.7725 0
M  V30 56 Fe -6.0252 0.2717 -2.1825 0
M  V30 57 Ag -7.0604 -0.8791 -0.3792 0
M  V30 58 Ag 8.6060 -2.0289 -0.1616 0
M  V30 59 Fe 7.5472 -1.2408 1.8130 0
M  V30 60 Ag 6.1605 -0.8941 3.7100 0
M  V30 61 Ag 8.3498 -4.1992 0.4392 0
M  V30 62 Fe 7.3311 -3.8500 2.5490 0
M  V30 63 Ag 6.0110 -3.0732 4.3555 0
M  V30 64 Ag -5.5111 3.6287 -2.7576 0
M  V30 65 Fe -6.7175 2.4978 -1.0573 0
M  V30 66 Ag -7.7034 1.0967 0.5828 0
M  V30 67 Ag 7.1785 -4.7530 -1.6080 0
M  V30 68 Fe 4.8648 -5.2806 -1.4740 0
M  V30 69 Ag 2.5221 -5.6242 -1.2632 0
M  V30 70 Ag 1.0704 -5.0026 0.7754 0
M  V30 71 Fe 2.2223 -4.0720 2.6342 0
M  V30 72 Ag 3.5186 -2.9919 4.3076 0
M  V30 73 Ag -0.9125 -0.8224 2.2760 0
M  V30 74 Fe 1.3576 -0.6898 2.9534 0
M  V30 75 Ag 3.6125 -0.7273 3.6908 0
M  V30 76 Ag -7.3832 0.3227 2.8196 0
M  V30 77 Fe -5.7674 1.7132 3.8536 0
M  V30 78 Ag -3.9025 3.0093 4.5298 0
M  V30 79 Ag 0.8475 4.9363 -1.6692 0
M  V30 80 Fe 2.0201 3.5326 -3.1878 0
M  V30 81 Ag 3.1167 2.0547 -4.6925 0
M  V30 82 Ba -2.3033 -1.0070 3.9814 0
M  V30 83 Ga -2.1501 0.3931 4.4285 0
M  V30 84 Ba -2.0015 1.8035 4.8435 0
M  V30 85 Ba -1.7888 5.7621 0.4857 0
M  V30 86 Ga -2.2710 5.2543 1.7834 0
M  V30 87 Ba -2.7327 4.7238 3.0794 0
M  V30 88 Ba 0.3203 4.6040 0.7863 0
M  V30 89 Ga -0.1545 4.0502 2.0735 0
M  V30 90 Ba -0.6521 3.5010 3.3539 0
M  V30 91 Ba -1.4023 5.9310 -1.9698 0
M  V30 92 Ga -2.4361 5.3918 -2.8785 0
M  V30 93 Ba -3.4693 4.8413 -3.7810 0
M  V30 94 Ba -3.9266 -2.5612 2.6238 0
M  V30 95 Ga -5.3393 -2.2641 2.3050 0
M  V30 96 Ba -6.7419 -1.9344 1.9735 0
M  V30 97 Ba -2.3560 -2.4435 0.7895 0
M  V30 98 Ga -1.4619 -3.2963 -0.0233 0
M  V30 99 Ba -0.6319 -4.1480 -0.9026 0
M  V30 END ATOM
M  V30 BEGIN BOND
M  V30 1 1 1 2
M  V30 2 1 1 3
M  V30 3 1 1 4
M  V30 4 1 1 5
M  V30 5 1 6 7
M  V30 6 1 6 8
M  V30 7 1 6 9
M  V30 8 1 6 10
M  V30 9 1 11 12
M  V30 10 1 11 13
M  V30 11 1 11 14
M  V30 12 1 11 15
M  V30 13 1 16 17
M  V30 14 1 16 18
M  V30 15 1 16 19
M  V30 16 1 16 20
M  V30 17 1 21 22
M  V30 18 1 21 23
M  V30 19 1 21 24
M  V30 20 1 21 25
M  V30 21 1 26 27
M  V30 22 1 26 28
M  V30 23 1 26 29
M  V30 24 1 26 30
M  V30 25 1 31 32
M  V30 26 1 31 33
M  V30 27 1 31 34
M  V30 28 1 31 35
M  V30 29 1 36 37
M  V30 30 1 36 38
M  V30 31 1 36 39
M  V30 32 1 36 40
M  V30 33 1 41 42
M  V30 34 1 41 43
M  V30 35 1 41 44
M  V30 36 1 41 45
M  V30 37 1 46 47
M  V30 38 1 47 48
M  V30 39 1 49 50
M  V30 40 1 50 51
M  V30 41 1 52 53
M  V30 42 1 53 54
M  V30 43 1 55 56
M  V30 44 1 56 57
M  V30 45 1 58 59
M  V30 46 1 59 60
M  V30 47 1 61 62
M  V30 48 1 62 63
M  V30 49 1 64 65
M  V30 50 1 65 66
M  V30 51 1 67 68
M  V30 52 1 68 69
M  V30 53 1 70 71
M  V30 54 1 71 72
M  V30 55 1 73 74
M  V30 56 1 74 75
M  V30 57 1 76 77
M  V30 58 1 77 78
M  V30 59 1 79 80
M  V30 60 1 80 81
M  V30 61 1 82 83
M  V30 62 1 83 84
M  V30 63 1 85 86
M  V30 64 1 86 87
M  V30 65 1 88 89
M  V30 66 1 89 90
M  V30 67 1 91 92
M  V30 68 1 92 93
M  V30 69 1 94 95
M  V30 70 1 95 96
M  V30 71 1 97 98
M  V30 72 1 98 99
M  V30 73 1 2 82
M  V30 74 1 3 73
M  V30 75 1 4 94
M  V30 76 1 5 97
M  V30 77 1 7 46
M  V30 78 1 8 61
M  V30 79 1 9 67
M  V30 80 1 10 58
M  V30 81 1 12 88
M  V30 82 1 13 79
M  V30 83 1 14 91
M  V30 84 1 15 85
M  V30 85 1 17 93
M  V30 86 1 18 55
M  V30 87 1 19 52
M  V30 88 1 20 64
M  V30 89 1 22 48
M  V30 90 1 23 81
M  V30 91 1 24 54
M  V30 92 1 25 49
M  V30 93 1 27 57
M  V30 94 1 28 76
M  V30 95 1 29 96
M  V30 96 1 30 66
M  V30 97 1 32 84
M  V30 98 1 33 78
M  V30 99 1 34 87
M  V30 100 1 35 90
M  V30 101 1 37 51
M  V30 102 1 38 70
M  V30 103 1 39 69
M  V30 104 1 40 99
M  V30 105 1 42 63
M  V30 106 1 43 75
M  V30 107 1 44 72
M  V30 108 1 45 60
M  V30 END BOND
M  V30 END CTAB
M  END

$$$$
