
     RDKit          3D

  0  0  0  0  0  0  0  0  0  0999 V3000
M  V30 BEGIN CTAB
M  V30 COUNTS 99 108 0 0 0
M  V30 BEGIN ATOM
M  V30 1 Pd 1.7339 -4.1661 3.1587 0
M  V30 2 Pb 2.4134 -3.7367 3.7631 0
M  V30 3 Pb 1.0791 -4.6994 2.6205 0
M  V30 4 Pb 1.0031 -4.0930 3.8369 0
M  V30 5 Pb 2.4065 -4.1865 2.4189 0
M  V30 6 Pd -3.5110 -1.5840 -6.3745 0
M  V30 7 Pb -3.5572 -0.5903 -6.2738 0
M  V30 8 Pb -3.9860 -1.7456 -5.5058 0
M  V30 9 Pb -2.8349 -1.5608 -7.1048 0
M  V30 10 Pb -3.4498 -2.5669 -6.4778 0
M  V30 11 Pd 2.8511 6.1148 1.5511 0
M  V30 12 Pb 3.5381 5.3958 1.6616 0
M  V30 13 Pb 2.9536 6.0731 0.5628 0
M  V30 14 Pb 2.1217 6.7899 1.4229 0
M  V30 15 Pb 2.7250 6.0763 2.5410 0
M  V30 16 Pd -2.3321 5.5336 0.5187 0
M  V30 17 Pb -1.7411 6.3430 0.5179 0
M  V30 18 Pb -2.3035 5.5260 1.5163 0
M  V30 19 Pb -2.4299 5.5684 -0.4809 0
M  V30 20 Pb -2.8945 4.7052 0.5879 0
M  V30 21 Pd -0.7245 3.1704 -4.4174 0
M  V30 22 Pb -1.5200 2.7299 -4.8397 0
M  V30 23 Pb 0.0599 3.6707 -4.0613 0
M  V30 24 Pb -1.3313 3.8910 -4.0752 0
M  V30 25 Pb -0.0798 2.4609 -4.7080 0
M  V30 26 Pd -3.2593 0.6506 5.8127 0
M  V30 27 Pb -3.1962 1.6449 5.8360 0
M  V30 28 Pb -2.7202 0.5674 6.6467 0
M  V30 29 Pb -3.1895 -0.3432 5.7524 0
M  V30 30 Pb -3.6869 0.7491 4.9104 0
M  V30 31 Pd 3.6681 0.5097 6.0073 0
M  V30 32 Pb 3.8683 -0.4591 5.8491 0
M  V30 33 Pb 3.0372 0.2894 6.7476 0
M  V30 34 Pb 3.4362 1.4764 6.1205 0
M  V30 35 Pb 4.2362 0.7892 5.2349 0
M  V30 36 Pd 2.5508 -3.9619 -4.4397 0
M  V30 37 Pb 2.6358 -2.9765 -4.5892 0
M  V30 38 Pb 2.4304 -4.9435 -4.2655 0
M  V30 39 Pb 2.0903 -3.9514 -5.3300 0
M  V30 40 Pb 3.0143 -3.9255 -3.5537 0
M  V30 41 Pd -1.0725 -6.2290 -1.7821 0
M  V30 42 Pb -1.8876 -5.6457 -1.6905 0
M  V30 43 Pb -0.8849 -6.1855 -0.8003 0
M  V30 44 Pb -0.2205 -6.7059 -1.9942 0
M  V30 45 Pb -1.3175 -6.3375 -2.7355 0
M  V30 46 Ag 0.4788 1.9828 -4.8674 0
M  V30 47 Fe 1.5411 -0.1424 -4.8048 0
M  V30 48 Ag 2.6429 -2.2482 -4.7712 0
M  V30 49 Ag -2.3447 5.4833 2.2618 0
M  V30 50 Fe -2.7077 4.0382 4.1068 0
M  V30 51 Ag -3.0896 2.3796 5.7579 0
M  V30 52 Ag 2.6711 5.9323 3.2738 0
M  V30 53 Fe 2.9286 4.1548 4.8268 0
M  V30 54 Ag 3.2572 2.2049 6.1414 0
M  V30 55 Ag -3.3333 -3.2963 -6.4999 0
M  V30 56 Fe -2.4723 -5.0158 -5.1325 0
M  V30 57 Ag -1.5561 -6.3745 -3.4345 0
M  V30 58 Ag -4.2002 -1.9894 -4.8240 0
M  V30 59 Fe -3.4698 -3.5411 -3.1687 0
M  V30 60 Ag -2.4713 -5.1653 -1.7380 0
M  V30 61 Ag 4.0097 4.8253 1.7849 0
M  V30 62 Fe 4.4271 2.9236 3.1442 0
M  V30 63 Ag 4.5910 1.0963 4.6514 0
M  V30 64 Ag -3.2891 4.0806 0.7392 0
M  V30 65 Fe -3.6977 2.4290 2.4037 0
M  V30 66 Ag -3.9341 0.9031 4.2150 0
M  V30 67 Ag -2.2325 -1.7444 -7.5069 0
M  V30 68 Fe -0.1607 -2.7704 -6.9600 0
M  V30 69 Ag 1.7532 -3.7853 -5.9828 0
M  V30 70 Ag 0.3811 -4.0331 4.2522 0
M  V30 71 Fe -1.3595 -2.6255 5.0446 0
M  V30 72 Ag -3.0072 -1.0693 5.7531 0
M  V30 73 Ag 2.8820 -4.1610 1.8394 0
M  V30 74 Fe 3.1569 -4.0502 -0.5175 0
M  V30 75 Ag 3.3502 -3.9400 -2.8825 0
M  V30 76 Ag -2.2182 0.4580 7.1877 0
M  V30 77 Fe 0.1323 0.2861 7.4381 0
M  V30 78 Ag 2.4934 0.1976 7.2513 0
M  V30 79 Ag 2.9792 5.9930 -0.1767 0
M  V30 80 Fe 1.8612 5.0513 -2.0413 0
M  V30 81 Ag 0.6483 4.0615 -3.8199 0
M  V30 82 Ba -3.6216 0.1532 -6.2020 0
M  V30 83 Ga -2.8353 1.2834 -5.6679 0
M  V30 84 Ba -2.1535 2.4953 -5.1716 0
M  V30 85 Ba 2.9625 -3.5004 4.2253 0
M  V30 86 Ga 3.4474 -2.3079 4.9548 0
M  V30 87 Ba 4.0240 -1.1843 5.7264 0
M  V30 88 Ba -2.5502 5.6329 -1.2235 0
M  V30 89 Ga -2.1381 5.0075 -2.4996 0
M  V30 90 Ba -1.7779 4.4388 -3.8174 0
M  V30 91 Ba 1.5661 7.2745 1.2726 0
M  V30 92 Ga 0.1380 7.1205 0.9222 0
M  V30 93 Ba -1.2877 6.9409 0.5739 0
M  V30 94 Ba 2.3676 -5.6617 -4.0421 0
M  V30 95 Ga 1.4137 -6.3723 -3.1621 0
M  V30 96 Ba 0.4083 -7.0015 -2.2778 0
M  V30 97 Ba 0.5594 -5.1567 2.3278 0
M  V30 98 Ga -0.0682 -5.6168 1.0735 0
M  V30 99 Ba -0.8179 -6.2061 -0.0533 0
M  V30 END ATOM
M  V30 BEGIN BOND
M  V30 1 1 1 2
M  V30 2 1 1 3
M  V30 3 1 1 4
M  V30 4 1 1 5
M  V30 5 1 6 7
M  V30 6 1 6 8
M  V30 7 1 6 9
M  V30 8 1 6 10
M  V30 9 1 11 12
M  V30 10 1 11 13
M  V30 11 1 11 14
M  V30 12 1 11 15
M  V30 13 1 16 17
M  V30 14 1 16 18
M  V30 15 1 16 19
M  V30 16 1 16 20
M  V30 17 1 21 22
M  V30 18 1 21 23
M  V30 19 1 21 24
M  V30 20 1 21 25
M  V30 21 1 26 27
M  V30 22 1 26 28
M  V30 23 1 26 29
M  V30 24 1 26 30
M  V30 25 1 31 32
M  V30 26 1 31 33
M  V30 27 1 31 34
M  V30 28 1 31 35
M  V30 29 1 36 37
M  V30 30 1 36 38
M  V30 31 1 36 39
M  V30 32 1 36 40
M  V30 33 1 41 42
M  V30 34 1 41 43
M  V30 35 1 41 44
M  V30 36 1 41 45
M  V30 37 1 46 47
M  V30 38 1 47 48
M  V30 39 1 49 50
M  V30 40 1 50 51
M  V30 41 1 52 53
M  V30 42 1 53 54
M  V30 43 1 55 56
M  V30 44 1 56 57
M  V30 45 1 58 59
M  V30 46 1 59 60
M  V30 47 1 61 62
M  V30 48 1 62 63
M  V30 49 1 64 65
M  V30 50 1 65 66
M  V30 51 1 67 68
M  V30 52 1 68 69
M  V30 53 1 70 71
M  V30 54 1 71 72
M  V30 55 1 73 74
M  V30 56 1 74 75
M  V30 57 1 76 77
M  V30 58 1 77 78
M  V30 59 1 79 80
M  V30 60 1 80 81
M  V30 61 1 82 83
M  V30 62 1 83 84
M  V30 63 1 85 86
M  V30 64 1 86 87
M  V30 65 1 88 89
M  V30 66 1 89 90
M  V30 67 1 91 92
M  V30 68 1 92 93
M  V30 69 1 94 95
M  V30 70 1 95 96
M  V30 71 1 97 98
M  V30 72 1 98 99
M  V30 73 1 2 85
M  V30 74 1 3 97
M  V30 75 1 4 70
M  V30 76 1 5 73
M  V30 77 1 7 82
M  V30 78 1 8 58
M  V30 79 1 9 67
M  V30 80 1 10 55
M  V30 81 1 12 61
M  V30 82 1 13 79
M  V30 83 1 14 91
M  V30 84 1 15 52
M  V30 85 1 17 93
M  V30 86 1 18 49
M  V30 87 1 19 88
M  V30 88 1 20 64
M  V30 89 1 22 84
M  V30 90 1 23 81
M  V30 91 1 24 90
M  V30 92 1 25 46
M  V30 93 1 27 51
M  V30 94 1 28 76
M  V30 95 1 29 72
M  V30 96 1 30 66
M  V30 97 1 32 87
M  V30 98 1 33 78
M  V30 99 1 34 54
M  V30 100 1 35 63
M  V30 101 1 37 48
M  V30 102 1 38 94
M  V30 103 1 39 69
M  V30 104 1 40 75
M  V30 105 1 42 60
M  V30 106 1 43 99
M  V30 107 1 44 96
M  V30 108 1 45 57
M  V30 END BOND
M  V30 END CTAB
M  END

$$$$
