
     RDKit          3D

  0  0  0  0  0  0  0  0  0  0999 V3000
M  V30 BEGIN CTAB
M  V30 COUNTS 99 108 0 0 0
M  V30 BEGIN ATOM
M  V30 1 Pd -3.2815 -2.8813 -1.5006 0
M  V30 2 Pb -2.6685 -3.6175 -1.8438 0
M  V30 3 Pb -3.4548 -3.4091 -0.6775 0
M  V30 4 Pb -4.1731 -2.4444 -1.4080 0
M  V30 5 Pb -2.3154 -2.8206 -1.2585 0
M  V30 6 Pd 0.8566 -7.3287 -0.8141 0
M  V30 7 Pb 0.1971 -7.3340 -0.0718 0
M  V30 8 Pb 1.5212 -7.3239 -1.5612 0
M  V30 9 Pb 0.2348 -6.7387 -1.3624 0
M  V30 10 Pb 1.4682 -7.9084 -0.2760 0
M  V30 11 Pd -3.4161 9.9135 -1.0501 0
M  V30 12 Pb -3.7121 9.6537 -0.1301 0
M  V30 13 Pb -3.0116 10.0459 -1.9499 0
M  V30 14 Pb -4.0349 9.2045 -1.3867 0
M  V30 15 Pb -2.8028 10.6418 -0.7015 0
M  V30 16 Pd -5.6667 3.5173 1.4662 0
M  V30 17 Pb -5.9615 2.6781 1.0098 0
M  V30 18 Pb -5.2359 2.9690 2.1864 0
M  V30 19 Pb -5.9808 4.0659 0.6935 0
M  V30 20 Pb -5.3969 4.3821 1.8951 0
M  V30 21 Pd 1.7589 -12.6709 -0.4537 0
M  V30 22 Pb 0.8311 -12.3511 -0.2609 0
M  V30 23 Pb 1.3818 -13.4865 -0.8901 0
M  V30 24 Pb 2.1367 -11.8557 -0.0146 0
M  V30 25 Pb 2.5994 -12.7679 -1.0109 0
M  V30 26 Pd 4.5894 7.5353 3.6570 0
M  V30 27 Pb 4.4353 8.3074 4.2628 0
M  V30 28 Pb 4.2513 6.9120 4.3583 0
M  V30 29 Pb 4.7892 8.1812 2.8961 0
M  V30 30 Pb 4.7223 6.7282 3.0789 0
M  V30 31 Pd 2.0498 11.5461 0.3107 0
M  V30 32 Pb 2.0197 11.2701 -0.6459 0
M  V30 33 Pb 1.1045 11.8907 0.2109 0
M  V30 34 Pb 2.9453 11.0886 0.4693 0
M  V30 35 Pb 2.0736 11.8889 1.2427 0
M  V30 36 Pd 1.9474 -10.5994 -5.0089 0
M  V30 37 Pb 1.0255 -10.2152 -4.9581 0
M  V30 38 Pb 2.7504 -11.1087 -4.6594 0
M  V30 39 Pb 1.5669 -11.4526 -5.3627 0
M  V30 40 Pb 2.3287 -9.7445 -4.6571 0
M  V30 41 Pd 1.1492 1.1966 3.1368 0
M  V30 42 Pb 1.3088 1.8569 3.8685 0
M  V30 43 Pb 2.0152 1.5075 2.7430 0
M  V30 44 Pb 0.2253 1.0134 3.4785 0
M  V30 45 Pb 1.0489 0.5030 2.4226 0
M  V30 46 Ag -4.7938 -2.0466 -1.2861 0
M  V30 47 Fe -5.5757 -0.0174 -0.3361 0
M  V30 48 Ag -6.1770 2.0516 0.6590 0
M  V30 49 Ag -2.5260 10.1198 -2.5057 0
M  V30 50 Fe -0.2164 10.5905 -2.3895 0
M  V30 51 Ag 1.8375 11.1119 -1.3492 0
M  V30 52 Ag -4.5178 8.6582 -1.5595 0
M  V30 53 Fe -5.4092 6.5811 -0.8351 0
M  V30 54 Ag -6.1145 4.5249 0.1178 0
M  V30 55 Ag -1.6130 -2.6999 -1.0312 0
M  V30 56 Fe -0.2634 -1.3911 0.4188 0
M  V30 57 Ag 1.0021 -0.0340 1.9000 0
M  V30 58 Ag 3.9146 6.4159 4.8045 0
M  V30 59 Fe 2.6934 4.3831 4.7445 0
M  V30 60 Ag 1.5143 2.3559 4.3870 0
M  V30 61 Ag 1.1209 -13.9885 -1.3708 0
M  V30 62 Fe 0.9329 -13.6621 -3.6911 0
M  V30 63 Ag 1.2895 -12.1365 -5.4435 0
M  V30 64 Ag -3.4770 -3.8720 -0.1006 0
M  V30 65 Fe -2.1184 -5.6850 0.5457 0
M  V30 66 Ag -0.3483 -7.2345 0.4183 0
M  V30 67 Ag 4.7806 6.0697 2.7207 0
M  V30 68 Fe 3.7984 3.9164 2.4994 0
M  V30 69 Ag 2.6213 1.8516 2.4628 0
M  V30 70 Ag -4.8540 2.5390 2.6719 0
M  V30 71 Fe -2.7114 1.6941 3.2646 0
M  V30 72 Ag -0.4920 0.9583 3.6987 0
M  V30 73 Ag -3.9033 9.3354 0.5229 0
M  V30 74 Fe -4.5733 7.2562 1.4612 0
M  V30 75 Ag -5.2323 5.0747 2.1392 0
M  V30 76 Ag 0.1922 -11.9927 -0.4203 0
M  V30 77 Fe -0.2189 -10.8465 -2.4584 0
M  V30 78 Ag 0.3663 -10.0795 -4.6277 0
M  V30 79 Ag 4.2424 8.9381 4.5961 0
M  V30 80 Fe 3.1579 10.8269 3.7087 0
M  V30 81 Ag 2.1655 12.0467 1.9594 0
M  V30 82 Ba 1.9283 -8.3432 0.1262 0
M  V30 83 Ga 2.1736 -9.7945 0.2212 0
M  V30 84 Ba 2.4199 -11.2455 0.3171 0
M  V30 85 Ba 2.0209 -7.3214 -2.1204 0
M  V30 86 Ga 2.3173 -8.2122 -3.2580 0
M  V30 87 Ba 2.6147 -9.1022 -4.3959 0
M  V30 88 Ba -2.2298 -4.1585 -2.1644 0
M  V30 89 Ga -1.2199 -5.2255 -1.8908 0
M  V30 90 Ba -0.2124 -6.3274 -1.8299 0
M  V30 91 Ba 3.1576 -12.7582 -1.5376 0
M  V30 92 Ga 3.2423 -12.1476 -2.9068 0
M  V30 93 Ba 3.2706 -11.5162 -4.2689 0
M  V30 94 Ba 4.9278 8.6720 2.3217 0
M  V30 95 Ga 4.2215 9.6961 1.4875 0
M  V30 96 Ba 3.6167 10.7379 0.5972 0
M  V30 97 Ba -2.3774 11.2321 -0.4703 0
M  V30 98 Ga -0.9720 11.6233 -0.1652 0
M  V30 99 Ba 0.3862 12.1388 0.1680 0
M  V30 END ATOM
M  V30 BEGIN BOND
M  V30 1 1 1 2
M  V30 2 1 1 3
M  V30 3 1 1 4
M  V30 4 1 1 5
M  V30 5 1 6 7
M  V30 6 1 6 8
M  V30 7 1 6 9
M  V30 8 1 6 10
M  V30 9 1 11 12
M  V30 10 1 11 13
M  V30 11 1 11 14
M  V30 12 1 11 15
M  V30 13 1 16 17
M  V30 14 1 16 18
M  V30 15 1 16 19
M  V30 16 1 16 20
M  V30 17 1 21 22
M  V30 18 1 21 23
M  V30 19 1 21 24
M  V30 20 1 21 25
M  V30 21 1 26 27
M  V30 22 1 26 28
M  V30 23 1 26 29
M  V30 24 1 26 30
M  V30 25 1 31 32
M  V30 26 1 31 33
M  V30 27 1 31 34
M  V30 28 1 31 35
M  V30 29 1 36 37
M  V30 30 1 36 38
M  V30 31 1 36 39
M  V30 32 1 36 40
M  V30 33 1 41 42
M  V30 34 1 41 43
M  V30 35 1 41 44
M  V30 36 1 41 45
M  V30 37 1 46 47
M  V30 38 1 47 48
M  V30 39 1 49 50
M  V30 40 1 50 51
M  V30 41 1 52 53
M  V30 42 1 53 54
M  V30 43 1 55 56
M  V30 44 1 56 57
M  V30 45 1 58 59
M  V30 46 1 59 60
M  V30 47 1 61 62
M  V30 48 1 62 63
M  V30 49 1 64 65
M  V30 50 1 65 66
M  V30 51 1 67 68
M  V30 52 1 68 69
M  V30 53 1 70 71
M  V30 54 1 71 72
M  V30 55 1 73 74
M  V30 56 1 74 75
M  V30 57 1 76 77
M  V30 58 1 77 78
M  V30 59 1 79 80
M  V30 60 1 80 81
M  V30 61 1 82 83
M  V30 62 1 83 84
M  V30 63 1 85 86
M  V30 64 1 86 87
M  V30 65 1 88 89
M  V30 66 1 89 90
M  V30 67 1 91 92
M  V30 68 1 92 93
M  V30 69 1 94 95
M  V30 70 1 95 96
M  V30 71 1 97 98
M  V30 72 1 98 99
M  V30 73 1 2 88
M  V30 74 1 3 64
M  V30 75 1 4 46
M  V30 76 1 5 55
M  V30 77 1 7 66
M  V30 78 1 8 85
M  V30 79 1 9 90
M  V30 80 1 10 82
M  V30 81 1 12 73
M  V30 82 1 13 49
M  V30 83 1 14 52
M  V30 84 1 15 97
M  V30 85 1 17 48
M  V30 86 1 18 70
M  V30 87 1 19 54
M  V30 88 1 20 75
M  V30 89 1 22 76
M  V30 90 1 23 61
M  V30 91 1 24 84
M  V30 92 1 25 91
M  V30 93 1 27 79
M  V30 94 1 28 58
M  V30 95 1 29 94
M  V30 96 1 30 67
M  V30 97 1 32 51
M  V30 98 1 33 99
M  V30 99 1 34 96
M  V30 100 1 35 81
M  V30 101 1 37 78
M  V30 102 1 38 93
M  V30 103 1 39 63
M  V30 104 1 40 87
M  V30 105 1 42 60
M  V30 106 1 43 69
M  V30 107 1 44 72
M  V30 108 1 45 57
M  V30 END BOND
M  V30 END CTAB
M  END

$$$$
