
     RDKit          3D

  0  0  0  0  0  0  0  0  0  0999 V3000
M  V30 BEGIN CTAB
M  V30 COUNTS 99 108 0 0 0
M  V30 BEGIN ATOM
M  V30 1 Pd 3.8230 -0.1400 -3.5757 0
M  V30 2 Pb 2.9348 -0.3912 -3.9641 0
M  V30 3 Pb 4.7395 0.0751 -3.2299 0
M  V30 4 Pb 3.8756 -1.0314 -3.1262 0
M  V30 5 Pb 3.7533 0.7522 -4.0272 0
M  V30 6 Pd 2.5393 4.8309 2.9539 0
M  V30 7 Pb 1.8863 4.0728 3.0091 0
M  V30 8 Pb 3.2336 4.2599 3.3975 0
M  V30 9 Pb 1.9513 5.3958 2.3735 0
M  V30 10 Pb 3.2264 5.5528 2.9325 0
M  V30 11 Pd -7.2884 -2.2722 -1.0130 0
M  V30 12 Pb -7.0920 -3.1943 -1.3525 0
M  V30 13 Pb -7.3918 -1.3478 -0.6484 0
M  V30 14 Pb -7.6068 -2.6321 -0.1364 0
M  V30 15 Pb -6.9246 -1.9001 -1.8646 0
M  V30 16 Pd -4.1891 -4.2016 5.1813 0
M  V30 17 Pb -5.1623 -4.1195 4.9783 0
M  V30 18 Pb -4.1697 -5.0535 4.6632 0
M  V30 19 Pb -4.1798 -3.2881 5.5869 0
M  V30 20 Pb -3.1916 -4.2627 5.2286 0
M  V30 21 Pd -2.8961 2.4466 2.4646 0
M  V30 22 Pb -1.9301 2.3757 2.7180 0
M  V30 23 Pb -3.8545 2.4392 2.1820 0
M  V30 24 Pb -3.1502 2.0778 3.3590 0
M  V30 25 Pb -2.6437 2.7312 1.5417 0
M  V30 26 Pd 0.2307 -6.0687 -0.0616 0
M  V30 27 Pb -0.5959 -6.5007 0.2939 0
M  V30 28 Pb -0.0194 -6.3150 -0.9983 0
M  V30 29 Pb 1.0687 -5.6354 -0.3930 0
M  V30 30 Pb 0.4180 -5.7819 0.8799 0
M  V30 31 Pd -3.1524 -3.8789 -3.7795 0
M  V30 32 Pb -2.4063 -3.3246 -4.1522 0
M  V30 33 Pb -2.5381 -4.6671 -3.6913 0
M  V30 34 Pb -3.7720 -3.1042 -3.9019 0
M  V30 35 Pb -3.9199 -4.4058 -3.4060 0
M  V30 36 Pd 2.3269 5.1545 -2.4262 0
M  V30 37 Pb 1.4197 4.7437 -2.3878 0
M  V30 38 Pb 3.2408 5.5601 -2.4749 0
M  V30 39 Pb 2.0332 5.7100 -1.6408 0
M  V30 40 Pb 2.5951 4.5812 -3.2037 0
M  V30 41 Pd 8.6999 4.1598 0.4453 0
M  V30 42 Pb 8.5207 3.6431 1.2823 0
M  V30 43 Pb 8.7195 3.3239 -0.1013 0
M  V30 44 Pb 8.6098 4.7058 -0.3821 0
M  V30 45 Pb 8.5152 4.9890 0.9634 0
M  V30 46 Ag 2.2874 -0.5891 -4.2905 0
M  V30 47 Fe 0.2152 -1.7523 -4.3230 0
M  V30 48 Ag -1.8728 -2.8812 -4.4412 0
M  V30 49 Ag -2.4608 2.8974 0.8353 0
M  V30 50 Fe -0.8900 3.6761 -0.7626 0
M  V30 51 Ag 0.7309 4.4685 -2.3026 0
M  V30 52 Ag -4.1580 -2.5711 5.8041 0
M  V30 53 Fe -3.7668 -0.3637 5.0204 0
M  V30 54 Ag -3.3323 1.7373 4.0022 0
M  V30 55 Ag -4.0916 -5.6313 4.1963 0
M  V30 56 Fe -2.7355 -6.3609 2.3928 0
M  V30 57 Ag -1.1975 -6.7825 0.6375 0
M  V30 58 Ag 3.8125 6.0142 2.9186 0
M  V30 59 Fe 6.0734 6.0483 2.2164 0
M  V30 60 Ag 8.2132 5.5629 1.3279 0
M  V30 61 Ag 3.8365 3.8692 3.6219 0
M  V30 62 Fe 6.0776 3.4536 2.9458 0
M  V30 63 Ag 8.2064 3.3423 1.8937 0
M  V30 64 Ag -2.4506 -4.3378 5.1340 0
M  V30 65 Fe -0.8623 -4.9298 3.4678 0
M  V30 66 Ag 0.4613 -5.5665 1.5990 0
M  V30 67 Ag -7.7967 -2.8673 0.5495 0
M  V30 68 Fe -6.9687 -3.4865 2.6856 0
M  V30 69 Ag -5.8537 -4.0559 4.7015 0
M  V30 70 Ag 3.9091 -1.6994 -2.7876 0
M  V30 71 Fe 2.8066 -3.5080 -1.7139 0
M  V30 72 Ag 1.6992 -5.3139 -0.6408 0
M  V30 73 Ag 3.9493 5.7959 -2.5577 0
M  V30 74 Fe 6.2118 5.5754 -1.8735 0
M  V30 75 Ag 8.3471 5.1240 -0.9412 0
M  V30 76 Ag 5.4412 0.1962 -2.9849 0
M  V30 77 Fe 7.0655 1.4319 -1.7669 0
M  V30 78 Ag 8.6382 2.7146 -0.5302 0
M  V30 79 Ag -7.3989 -0.6637 -0.3435 0
M  V30 80 Fe -6.0732 0.9373 0.8029 0
M  V30 81 Ag -4.5583 2.3729 1.9338 0
M  V30 82 Ba 1.4702 3.4532 3.1018 0
M  V30 83 Ga 0.0953 2.9290 2.9750 0
M  V30 84 Ba -1.2143 2.2496 2.9071 0
M  V30 85 Ba -6.6150 -1.6351 -2.4919 0
M  V30 86 Ga -5.4369 -2.0645 -3.2651 0
M  V30 87 Ba -4.2507 -2.5360 -4.0006 0
M  V30 88 Ba -6.8912 -3.8717 -1.6107 0
M  V30 89 Ga -5.7134 -4.3436 -2.3706 0
M  V30 90 Ba -4.5187 -4.7707 -3.1308 0
M  V30 91 Ba 1.6047 5.8517 1.8862 0
M  V30 92 Ga 1.6621 5.9698 0.4108 0
M  V30 93 Ba 1.7233 6.0891 -1.0643 0
M  V30 94 Ba 3.6769 1.4078 -4.3884 0
M  V30 95 Ga 3.2462 2.7838 -4.0624 0
M  V30 96 Ba 2.8247 4.1751 -3.7942 0
M  V30 97 Ba -0.2290 -6.4814 -1.6994 0
M  V30 98 Ga -1.1561 -5.8651 -2.6708 0
M  V30 99 Ba -2.0789 -5.2629 -3.6550 0
M  V30 END ATOM
M  V30 BEGIN BOND
M  V30 1 1 1 2
M  V30 2 1 1 3
M  V30 3 1 1 4
M  V30 4 1 1 5
M  V30 5 1 6 7
M  V30 6 1 6 8
M  V30 7 1 6 9
M  V30 8 1 6 10
M  V30 9 1 11 12
M  V30 10 1 11 13
M  V30 11 1 11 14
M  V30 12 1 11 15
M  V30 13 1 16 17
M  V30 14 1 16 18
M  V30 15 1 16 19
M  V30 16 1 16 20
M  V30 17 1 21 22
M  V30 18 1 21 23
M  V30 19 1 21 24
M  V30 20 1 21 25
M  V30 21 1 26 27
M  V30 22 1 26 28
M  V30 23 1 26 29
M  V30 24 1 26 30
M  V30 25 1 31 32
M  V30 26 1 31 33
M  V30 27 1 31 34
M  V30 28 1 31 35
M  V30 29 1 36 37
M  V30 30 1 36 38
M  V30 31 1 36 39
M  V30 32 1 36 40
M  V30 33 1 41 42
M  V30 34 1 41 43
M  V30 35 1 41 44
M  V30 36 1 41 45
M  V30 37 1 46 47
M  V30 38 1 47 48
M  V30 39 1 49 50
M  V30 40 1 50 51
M  V30 41 1 52 53
M  V30 42 1 53 54
M  V30 43 1 55 56
M  V30 44 1 56 57
M  V30 45 1 58 59
M  V30 46 1 59 60
M  V30 47 1 61 62
M  V30 48 1 62 63
M  V30 49 1 64 65
M  V30 50 1 65 66
M  V30 51 1 67 68
M  V30 52 1 68 69
M  V30 53 1 70 71
M  V30 54 1 71 72
M  V30 55 1 73 74
M  V30 56 1 74 75
M  V30 57 1 76 77
M  V30 58 1 77 78
M  V30 59 1 79 80
M  V30 60 1 80 81
M  V30 61 1 82 83
M  V30 62 1 83 84
M  V30 63 1 85 86
M  V30 64 1 86 87
M  V30 65 1 88 89
M  V30 66 1 89 90
M  V30 67 1 91 92
M  V30 68 1 92 93
M  V30 69 1 94 95
M  V30 70 1 95 96
M  V30 71 1 97 98
M  V30 72 1 98 99
M  V30 73 1 2 46
M  V30 74 1 3 76
M  V30 75 1 4 70
M  V30 76 1 5 94
M  V30 77 1 7 82
M  V30 78 1 8 61
M  V30 79 1 9 91
M  V30 80 1 10 58
M  V30 81 1 12 88
M  V30 82 1 13 79
M  V30 83 1 14 67
M  V30 84 1 15 85
M  V30 85 1 17 69
M  V30 86 1 18 55
M  V30 87 1 19 52
M  V30 88 1 20 64
M  V30 89 1 22 84
M  V30 90 1 23 81
M  V30 91 1 24 54
M  V30 92 1 25 49
M  V30 93 1 27 57
M  V30 94 1 28 97
M  V30 95 1 29 72
M  V30 96 1 30 66
M  V30 97 1 32 48
M  V30 98 1 33 99
M  V30 99 1 34 87
M  V30 100 1 35 90
M  V30 101 1 37 51
M  V30 102 1 38 73
M  V30 103 1 39 93
M  V30 104 1 40 96
M  V30 105 1 42 63
M  V30 106 1 43 78
M  V30 107 1 44 75
M  V30 108 1 45 60
M  V30 END BOND
M  V30 END CTAB
M  END

$$$$
