
     RDKit          3D

  0  0  0  0  0  0  0  0  0  0999 V3000
M  V30 BEGIN CTAB
M  V30 COUNTS 99 108 0 0 0
M  V30 BEGIN ATOM
M  V30 1 Pd -2.4100 5.1357 -2.1237 0
M  V30 2 Pb -1.4174 5.2155 -2.2157 0
M  V30 3 Pb -2.5329 6.1246 -2.0075 0
M  V30 4 Pb -3.3698 5.0201 -1.8846 0
M  V30 5 Pb -2.3338 4.1462 -2.2417 0
M  V30 6 Pd -4.0212 7.2858 1.9335 0
M  V30 7 Pb -3.8632 6.6356 2.6962 0
M  V30 8 Pb -4.5194 6.6027 1.3995 0
M  V30 9 Pb -3.9816 7.8522 1.1128 0
M  V30 10 Pb -3.5774 7.9968 2.4683 0
M  V30 11 Pd 3.0569 -3.3284 2.5960 0
M  V30 12 Pb 3.8868 -3.1513 2.0676 0
M  V30 13 Pb 2.1808 -3.4985 3.0509 0
M  V30 14 Pb 2.9848 -4.2031 2.1216 0
M  V30 15 Pb 3.1698 -2.4669 3.0930 0
M  V30 16 Pd 1.2448 -6.9621 -3.8300 0
M  V30 17 Pb 0.4415 -7.4821 -3.5264 0
M  V30 18 Pb 2.0308 -6.4078 -4.1218 0
M  V30 19 Pb 0.7620 -6.7743 -4.6828 0
M  V30 20 Pb 1.6716 -7.1077 -2.9412 0
M  V30 21 Pd 3.2125 2.1589 1.6115 0
M  V30 22 Pb 2.7104 1.4509 1.1222 0
M  V30 23 Pb 3.6322 2.8787 2.1605 0
M  V30 24 Pb 3.3378 1.5275 2.3774 0
M  V30 25 Pb 3.0465 2.7955 0.8550 0
M  V30 26 Pd 0.4524 4.8465 4.6107 0
M  V30 27 Pb -0.5653 4.8487 4.5708 0
M  V30 28 Pb 0.5147 3.9476 4.1700 0
M  V30 29 Pb 0.4234 5.7581 5.0068 0
M  V30 30 Pb 1.4509 4.8939 4.5859 0
M  V30 31 Pd 3.1521 -2.1786 -2.3725 0
M  V30 32 Pb 2.7187 -1.6129 -1.6746 0
M  V30 33 Pb 2.3587 -1.9640 -2.9381 0
M  V30 34 Pb 3.9297 -2.3552 -1.7666 0
M  V30 35 Pb 3.4967 -2.8281 -3.0540 0
M  V30 36 Pd -1.6253 -1.9288 0.9840 0
M  V30 37 Pb -2.3183 -2.5849 0.6706 0
M  V30 38 Pb -1.4074 -2.4935 1.7818 0
M  V30 39 Pb -1.7950 -1.3605 0.1798 0
M  V30 40 Pb -0.9641 -1.2557 1.3202 0
M  V30 41 Pd -3.1125 -5.0728 -3.4895 0
M  V30 42 Pb -2.7289 -5.3168 -4.3800 0
M  V30 43 Pb -3.0801 -6.0382 -3.2409 0
M  V30 44 Pb -2.9480 -4.1210 -3.7242 0
M  V30 45 Pb -3.4478 -4.8283 -2.5761 0
M  V30 46 Ag 2.9691 -4.8546 1.7547 0
M  V30 47 Fe 2.4782 -6.0623 -0.2265 0
M  V30 48 Ag 1.9507 -7.1771 -2.2523 0
M  V30 49 Ag -3.1828 8.4214 2.9291 0
M  V30 50 Fe -1.3435 7.9170 4.3084 0
M  V30 51 Ag 0.2938 6.4664 5.1762 0
M  V30 52 Ag 1.7182 -1.7831 -3.2788 0
M  V30 53 Fe -0.5181 -2.4490 -3.6922 0
M  V30 54 Ag -2.6467 -3.4665 -3.9083 0
M  V30 55 Ag -2.3065 3.4022 -2.3273 0
M  V30 56 Fe -2.1002 1.2338 -1.3826 0
M  V30 57 Ag -1.8926 -0.9288 -0.4248 0
M  V30 58 Ag 0.6377 3.2921 3.8201 0
M  V30 59 Fe 0.0204 1.2802 2.7134 0
M  V30 60 Ag -0.4708 -0.7598 1.5952 0
M  V30 61 Ag -0.6672 5.2113 -2.1930 0
M  V30 62 Fe 1.1791 4.2881 -1.0147 0
M  V30 63 Ag 2.8822 3.2609 0.2869 0
M  V30 64 Ba -2.8672 -3.0562 0.4569 0
M  V30 65 Ga -3.2506 -3.8504 -0.7317 0
M  V30 66 Ba -3.6945 -4.6681 -1.8826 0
M  V30 67 Ba -2.6985 6.8527 -1.9059 0
M  V30 68 Ga -3.2771 7.5827 -0.7591 0
M  V30 69 Ba -3.8513 8.1913 0.4581 0
M  V30 70 Ba 0.3225 -6.6180 -5.2670 0
M  V30 71 Ga -1.0401 -6.0608 -5.2315 0
M  V30 72 Ba -2.3859 -5.5012 -5.0206 0
M  V30 73 Ba -4.0533 4.9424 -1.5964 0
M  V30 74 Ga -4.5460 5.5066 -0.3296 0
M  V30 75 Ba -4.9004 6.1356 0.9531 0
M  V30 76 Ba 3.8763 3.4067 2.6303 0
M  V30 77 Ga 3.0953 4.2021 3.5932 0
M  V30 78 Ba 2.1959 4.9271 4.5072 0
M  V30 79 Ba -3.6987 6.1319 3.2487 0
M  V30 80 Ga -2.4844 5.5237 3.8777 0
M  V30 81 Ba -1.3335 4.8606 4.5672 0
M  V30 82 Ba 4.4723 -3.0399 1.6126 0
M  V30 83 Ga 4.5256 -2.7496 0.1663 0
M  V30 84 Ba 4.4936 -2.4606 -1.2810 0
M  V30 85 Ba 2.2801 0.9319 0.8015 0
M  V30 86 Ga 2.3668 -0.1392 -0.2038 0
M  V30 87 Ba 2.3014 -1.2386 -1.1796 0
M  V30 88 Ba 3.2792 -1.8351 3.4837 0
M  V30 89 Ga 3.3418 -0.3877 3.2023 0
M  V30 90 Ba 3.4126 1.0673 2.9654 0
M  V30 91 Ba -0.1858 -7.8382 -3.3074 0
M  V30 92 Ga -1.5790 -7.3678 -3.1686 0
M  V30 93 Ba -2.9174 -6.7505 -3.0802 0
M  V30 94 Ba 2.6204 -5.9862 -4.3338 0
M  V30 95 Ga 3.1723 -4.6671 -3.9488 0
M  V30 96 Ba 3.7142 -3.3465 -3.5549 0
M  V30 97 Ba 1.5008 -3.6280 3.3441 0
M  V30 98 Ga 0.1390 -3.2752 2.8921 0
M  V30 99 Ba -1.1937 -2.8893 2.3839 0
M  V30 END ATOM
M  V30 BEGIN BOND
M  V30 1 1 1 2
M  V30 2 1 1 3
M  V30 3 1 1 4
M  V30 4 1 1 5
M  V30 5 1 6 7
M  V30 6 1 6 8
M  V30 7 1 6 9
M  V30 8 1 6 10
M  V30 9 1 11 12
M  V30 10 1 11 13
M  V30 11 1 11 14
M  V30 12 1 11 15
M  V30 13 1 16 17
M  V30 14 1 16 18
M  V30 15 1 16 19
M  V30 16 1 16 20
M  V30 17 1 21 22
M  V30 18 1 21 23
M  V30 19 1 21 24
M  V30 20 1 21 25
M  V30 21 1 26 27
M  V30 22 1 26 28
M  V30 23 1 26 29
M  V30 24 1 26 30
M  V30 25 1 31 32
M  V30 26 1 31 33
M  V30 27 1 31 34
M  V30 28 1 31 35
M  V30 29 1 36 37
M  V30 30 1 36 38
M  V30 31 1 36 39
M  V30 32 1 36 40
M  V30 33 1 41 42
M  V30 34 1 41 43
M  V30 35 1 41 44
M  V30 36 1 41 45
M  V30 37 1 46 47
M  V30 38 1 47 48
M  V30 39 1 49 50
M  V30 40 1 50 51
M  V30 41 1 52 53
M  V30 42 1 53 54
M  V30 43 1 55 56
M  V30 44 1 56 57
M  V30 45 1 58 59
M  V30 46 1 59 60
M  V30 47 1 61 62
M  V30 48 1 62 63
M  V30 49 1 64 65
M  V30 50 1 65 66
M  V30 51 1 67 68
M  V30 52 1 68 69
M  V30 53 1 70 71
M  V30 54 1 71 72
M  V30 55 1 73 74
M  V30 56 1 74 75
M  V30 57 1 76 77
M  V30 58 1 77 78
M  V30 59 1 79 80
M  V30 60 1 80 81
M  V30 61 1 82 83
M  V30 62 1 83 84
M  V30 63 1 85 86
M  V30 64 1 86 87
M  V30 65 1 88 89
M  V30 66 1 89 90
M  V30 67 1 91 92
M  V30 68 1 92 93
M  V30 69 1 94 95
M  V30 70 1 95 96
M  V30 71 1 97 98
M  V30 72 1 98 99
M  V30 73 1 2 61
M  V30 74 1 3 67
M  V30 75 1 4 73
M  V30 76 1 5 55
M  V30 77 1 7 79
M  V30 78 1 8 75
M  V30 79 1 9 69
M  V30 80 1 10 49
M  V30 81 1 12 82
M  V30 82 1 13 97
M  V30 83 1 14 46
M  V30 84 1 15 88
M  V30 85 1 17 91
M  V30 86 1 18 94
M  V30 87 1 19 70
M  V30 88 1 20 48
M  V30 89 1 22 85
M  V30 90 1 23 76
M  V30 91 1 24 90
M  V30 92 1 25 63
M  V30 93 1 27 81
M  V30 94 1 28 58
M  V30 95 1 29 51
M  V30 96 1 30 78
M  V30 97 1 32 87
M  V30 98 1 33 52
M  V30 99 1 34 84
M  V30 100 1 35 96
M  V30 101 1 37 64
M  V30 102 1 38 99
M  V30 103 1 39 57
M  V30 104 1 40 60
M  V30 105 1 42 72
M  V30 106 1 43 93
M  V30 107 1 44 54
M  V30 108 1 45 66
M  V30 END BOND
M  V30 END CTAB
M  END

$$$$
