
     RDKit          3D

  0  0  0  0  0  0  0  0  0  0999 V3000
M  V30 BEGIN CTAB
M  V30 COUNTS 99 108 0 0 0
M  V30 BEGIN ATOM
M  V30 1 Pd 4.8761 2.3843 0.3767 0
M  V30 2 Pb 4.6038 2.8759 1.2071 0
M  V30 3 Pb 5.4580 1.8041 0.9512 0
M  V30 4 Pb 4.3524 3.0064 -0.2049 0
M  V30 5 Pb 5.1067 1.8947 -0.4658 0
M  V30 6 Pd 1.0504 -6.9653 0.7896 0
M  V30 7 Pb 0.0914 -6.7085 0.6729 0
M  V30 8 Pb 1.9987 -7.2323 0.9019 0
M  V30 9 Pb 1.0777 -7.4050 -0.1046 0
M  V30 10 Pb 1.1710 -6.3895 1.6056 0
M  V30 11 Pd -6.1813 1.4168 2.9813 0
M  V30 12 Pb -5.4910 1.3413 3.7048 0
M  V30 13 Pb -6.1701 0.4359 2.8075 0
M  V30 14 Pb -6.7998 1.5076 2.2000 0
M  V30 15 Pb -6.1602 2.4011 3.1412 0
M  V30 16 Pd -5.2282 1.9737 -2.3264 0
M  V30 17 Pb -6.0240 1.8100 -1.7370 0
M  V30 18 Pb -5.2430 2.9381 -2.0571 0
M  V30 19 Pb -5.2204 1.0254 -2.6548 0
M  V30 20 Pb -4.4577 2.1673 -2.9338 0
M  V30 21 Pd -3.1291 -3.4934 -1.7750 0
M  V30 22 Pb -2.7291 -4.2327 -1.2277 0
M  V30 23 Pb -3.8102 -3.4187 -1.0510 0
M  V30 24 Pb -3.6352 -2.8184 -2.3189 0
M  V30 25 Pb -2.4239 -3.5267 -2.4887 0
M  V30 26 Pd -1.5407 5.7818 -2.3517 0
M  V30 27 Pb -2.5181 5.8332 -2.1479 0
M  V30 28 Pb -1.3404 6.4833 -1.6702 0
M  V30 29 Pb -0.5583 5.6784 -2.4895 0
M  V30 30 Pb -1.7227 5.0437 -3.0000 0
M  V30 31 Pd -0.6699 5.5833 4.6616 0
M  V30 32 Pb 0.3014 5.3407 4.6458 0
M  V30 33 Pb -0.4883 6.3713 4.0797 0
M  V30 34 Pb -1.6450 5.7847 4.5971 0
M  V30 35 Pb -0.9293 4.7333 5.1221 0
M  V30 36 Pd 4.2285 -3.7267 -4.2984 0
M  V30 37 Pb 3.2753 -3.5572 -4.5549 0
M  V30 38 Pb 5.1591 -3.8726 -3.9603 0
M  V30 39 Pb 3.9755 -4.6930 -4.2559 0
M  V30 40 Pb 4.4575 -2.7545 -4.2621 0
M  V30 41 Pd 6.6298 -2.9356 2.0924 0
M  V30 42 Pb 6.5689 -3.9177 1.9697 0
M  V30 43 Pb 6.7126 -1.9471 2.2261 0
M  V30 44 Pb 7.2704 -2.9330 1.3277 0
M  V30 45 Pb 5.8369 -3.0170 2.7053 0
M  V30 46 Ag 4.4001 3.2212 1.8443 0
M  V30 47 Fe 2.7298 4.1953 3.2276 0
M  V30 48 Ag 1.0279 5.1612 4.5779 0
M  V30 49 Ag -1.9158 -3.4882 -3.0444 0
M  V30 50 Fe 0.3138 -3.4873 -3.8730 0
M  V30 51 Ag 2.5418 -3.4887 -4.7057 0
M  V30 52 Ag -6.0486 3.1217 3.3035 0
M  V30 53 Fe -4.3258 4.6323 3.9139 0
M  V30 54 Ag -2.3826 5.8583 4.5005 0
M  V30 55 Ag 1.3975 -5.9192 2.1546 0
M  V30 56 Fe 3.2199 -4.5003 2.7493 0
M  V30 57 Ag 5.1835 -3.1808 3.0511 0
M  V30 58 Ag 2.7222 -7.3587 0.9961 0
M  V30 59 Fe 4.7268 -6.1884 1.4318 0
M  V30 60 Ag 6.4584 -4.6433 1.8695 0
M  V30 61 Ag -4.9339 1.3625 4.2110 0
M  V30 62 Fe -3.0455 2.6248 4.9152 0
M  V30 63 Ag -1.2329 4.0939 5.3742 0
M  V30 64 Ag 1.2506 -7.6182 -0.7992 0
M  V30 65 Fe 2.4431 -6.6866 -2.6265 0
M  V30 66 Ag 3.6813 -5.3772 -4.1702 0
M  V30 67 Ag 4.0080 3.4641 -0.6890 0
M  V30 68 Fe 2.0968 4.5258 -1.6136 0
M  V30 69 Ag 0.1822 5.5862 -2.5324 0
M  V30 70 Ag 5.2118 1.5798 -1.1403 0
M  V30 71 Fe 4.9569 -0.2255 -2.6641 0
M  V30 72 Ag 4.6922 -2.0488 -4.1646 0
M  V30 73 Ag 5.8382 -3.8653 -3.6398 0
M  V30 74 Fe 6.9265 -3.4717 -1.5660 0
M  V30 75 Ag 7.6061 -3.0396 0.6677 0
M  V30 76 Ag -1.1518 6.9558 -1.1217 0
M  V30 77 Fe -0.7436 7.1074 1.2091 0
M  V30 78 Ag -0.4275 6.8921 3.5490 0
M  V30 79 Ag -6.1598 -0.2846 2.6137 0
M  V30 80 Fe -5.2684 -1.8808 1.1046 0
M  V30 81 Ag -4.2851 -3.3452 -0.4794 0
M  V30 82 Ba -0.6389 -6.5597 0.5949 0
M  V30 83 Ga -1.5327 -5.6330 -0.1294 0
M  V30 84 Ba -2.5800 -4.8067 -0.7628 0
M  V30 85 Ba -5.2099 0.3432 -2.9746 0
M  V30 86 Ga -4.6051 -0.9954 -2.7978 0
M  V30 87 Ba -4.0704 -2.3739 -2.7447 0
M  V30 88 Ba -5.2572 3.6701 -1.8879 0
M  V30 89 Ga -4.2635 4.7609 -1.9240 0
M  V30 90 Ba -3.2467 5.8299 -1.9702 0
M  V30 91 Ba -3.8916 2.3292 -3.3985 0
M  V30 92 Ga -2.8718 3.3929 -3.4445 0
M  V30 93 Ba -1.8653 4.4702 -3.4603 0
M  V30 94 Ba -7.2296 1.5344 1.5848 0
M  V30 95 Ga -6.9321 1.6346 0.1400 0
M  V30 96 Ba -6.6374 1.7333 -1.3054 0
M  V30 97 Ba 5.9162 1.4432 1.4268 0
M  V30 98 Ga 6.3216 0.0845 1.8410 0
M  V30 99 Ba 6.8139 -1.2130 2.3473 0
M  V30 END ATOM
M  V30 BEGIN BOND
M  V30 1 1 1 2
M  V30 2 1 1 3
M  V30 3 1 1 4
M  V30 4 1 1 5
M  V30 5 1 6 7
M  V30 6 1 6 8
M  V30 7 1 6 9
M  V30 8 1 6 10
M  V30 9 1 11 12
M  V30 10 1 11 13
M  V30 11 1 11 14
M  V30 12 1 11 15
M  V30 13 1 16 17
M  V30 14 1 16 18
M  V30 15 1 16 19
M  V30 16 1 16 20
M  V30 17 1 21 22
M  V30 18 1 21 23
M  V30 19 1 21 24
M  V30 20 1 21 25
M  V30 21 1 26 27
M  V30 22 1 26 28
M  V30 23 1 26 29
M  V30 24 1 26 30
M  V30 25 1 31 32
M  V30 26 1 31 33
M  V30 27 1 31 34
M  V30 28 1 31 35
M  V30 29 1 36 37
M  V30 30 1 36 38
M  V30 31 1 36 39
M  V30 32 1 36 40
M  V30 33 1 41 42
M  V30 34 1 41 43
M  V30 35 1 41 44
M  V30 36 1 41 45
M  V30 37 1 46 47
M  V30 38 1 47 48
M  V30 39 1 49 50
M  V30 40 1 50 51
M  V30 41 1 52 53
M  V30 42 1 53 54
M  V30 43 1 55 56
M  V30 44 1 56 57
M  V30 45 1 58 59
M  V30 46 1 59 60
M  V30 47 1 61 62
M  V30 48 1 62 63
M  V30 49 1 64 65
M  V30 50 1 65 66
M  V30 51 1 67 68
M  V30 52 1 68 69
M  V30 53 1 70 71
M  V30 54 1 71 72
M  V30 55 1 73 74
M  V30 56 1 74 75
M  V30 57 1 76 77
M  V30 58 1 77 78
M  V30 59 1 79 80
M  V30 60 1 80 81
M  V30 61 1 82 83
M  V30 62 1 83 84
M  V30 63 1 85 86
M  V30 64 1 86 87
M  V30 65 1 88 89
M  V30 66 1 89 90
M  V30 67 1 91 92
M  V30 68 1 92 93
M  V30 69 1 94 95
M  V30 70 1 95 96
M  V30 71 1 97 98
M  V30 72 1 98 99
M  V30 73 1 2 46
M  V30 74 1 3 97
M  V30 75 1 4 67
M  V30 76 1 5 70
M  V30 77 1 7 82
M  V30 78 1 8 58
M  V30 79 1 9 64
M  V30 80 1 10 55
M  V30 81 1 12 61
M  V30 82 1 13 79
M  V30 83 1 14 94
M  V30 84 1 15 52
M  V30 85 1 17 96
M  V30 86 1 18 88
M  V30 87 1 19 85
M  V30 88 1 20 91
M  V30 89 1 22 84
M  V30 90 1 23 81
M  V30 91 1 24 87
M  V30 92 1 25 49
M  V30 93 1 27 90
M  V30 94 1 28 76
M  V30 95 1 29 69
M  V30 96 1 30 93
M  V30 97 1 32 48
M  V30 98 1 33 78
M  V30 99 1 34 54
M  V30 100 1 35 63
M  V30 101 1 37 51
M  V30 102 1 38 73
M  V30 103 1 39 66
M  V30 104 1 40 72
M  V30 105 1 42 60
M  V30 106 1 43 99
M  V30 107 1 44 75
M  V30 108 1 45 57
M  V30 END BOND
M  V30 END CTAB
M  END

$$$$
