
     RDKit          3D

  0  0  0  0  0  0  0  0  0  0999 V3000
M  V30 BEGIN CTAB
M  V30 COUNTS 99 108 0 0 0
M  V30 BEGIN ATOM
M  V30 1 Pd 1.5995 2.9543 -4.6971 0
M  V30 2 Pb 2.2474 3.6761 -4.9560 0
M  V30 3 Pb 1.1536 3.0036 -5.5962 0
M  V30 4 Pb 0.7547 2.6124 -4.2758 0
M  V30 5 Pb 2.0726 2.8639 -3.8208 0
M  V30 6 Pd -0.0869 6.3965 -3.0033 0
M  V30 7 Pb 0.4385 6.1407 -2.1920 0
M  V30 8 Pb 0.7511 6.7407 -3.4361 0
M  V30 9 Pb -0.6376 6.6918 -3.7902 0
M  V30 10 Pb -0.7545 5.6815 -2.7778 0
M  V30 11 Pd -3.4227 -0.4924 -2.8554 0
M  V30 12 Pb -2.6894 0.1330 -3.0796 0
M  V30 13 Pb -4.1845 -1.0335 -2.5223 0
M  V30 14 Pb -3.7218 0.2045 -2.2004 0
M  V30 15 Pb -3.0201 -1.2489 -3.3680 0
M  V30 16 Pd 3.0186 0.5736 4.6400 0
M  V30 17 Pb 3.1082 -0.3122 5.0914 0
M  V30 18 Pb 2.4716 0.9412 5.3790 0
M  V30 19 Pb 3.4547 0.1511 3.8575 0
M  V30 20 Pb 2.8097 1.4126 4.1234 0
M  V30 21 Pd 0.3701 -7.0501 -1.5313 0
M  V30 22 Pb -0.2778 -6.9005 -0.7709 0
M  V30 23 Pb 1.2336 -7.0983 -2.0343 0
M  V30 24 Pb 0.6790 -7.8574 -1.0442 0
M  V30 25 Pb 0.0136 -6.3036 -2.0980 0
M  V30 26 Pd 0.7867 0.3699 0.0939 0
M  V30 27 Pb 0.0662 -0.1518 0.5859 0
M  V30 28 Pb 0.1731 0.8646 -0.5140 0
M  V30 29 Pb 1.5100 -0.1470 0.5415 0
M  V30 30 Pb 1.5088 0.9136 -0.3336 0
M  V30 31 Pd -0.9278 2.8759 0.9409 0
M  V30 32 Pb -1.8014 2.4781 0.6353 0
M  V30 33 Pb -0.2232 3.5685 0.7842 0
M  V30 34 Pb -0.1263 2.9671 1.5548 0
M  V30 35 Pb -1.4962 3.4848 1.5042 0
M  V30 36 Pd -3.7282 0.8931 3.4177 0
M  V30 37 Pb -4.4377 0.5498 2.8089 0
M  V30 38 Pb -4.0924 1.8174 3.4760 0
M  V30 39 Pb -3.0857 1.1681 4.1227 0
M  V30 40 Pb -3.1713 0.0945 3.1590 0
M  V30 41 Pd 2.2880 -6.8832 2.9060 0
M  V30 42 Pb 3.2470 -6.9235 2.6237 0
M  V30 43 Pb 2.1671 -7.7292 2.4022 0
M  V30 44 Pb 1.2866 -6.7640 2.8486 0
M  V30 45 Pb 2.4364 -6.0896 3.5007 0
M  V30 46 Ag -4.7417 -1.2523 -2.0880 0
M  V30 47 Fe -5.1259 -0.6970 0.1767 0
M  V30 48 Ag -4.9110 0.1897 2.3585 0
M  V30 49 Ag 0.7448 3.2056 -6.1866 0
M  V30 50 Fe -0.5826 5.1372 -6.1170 0
M  V30 51 Ag -0.9704 6.7455 -4.4556 0
M  V30 52 Ag -2.6630 -1.8373 -3.6639 0
M  V30 53 Fe -1.4664 -3.8232 -3.1415 0
M  V30 54 Ag -0.2717 -5.7993 -2.5792 0
M  V30 55 Ag 1.9796 -7.1214 -2.0946 0
M  V30 56 Fe 3.4248 -7.0682 -0.2153 0
M  V30 57 Ag 3.8028 -6.9633 2.1234 0
M  V30 58 Ag 3.1341 -1.0181 5.3399 0
M  V30 59 Fe 2.8617 -3.2869 4.6875 0
M  V30 60 Ag 2.5793 -5.5439 3.9996 0
M  V30 61 Ag 1.9276 1.2021 5.8038 0
M  V30 62 Fe -0.4020 1.3890 5.4678 0
M  V30 63 Ag -2.6269 1.3600 4.6748 0
M  V30 64 Ba -2.1932 0.6824 -3.0998 0
M  V30 65 Ga -1.1479 0.9855 -2.1150 0
M  V30 66 Ba -0.1294 1.2371 -1.0881 0
M  V30 67 Ba 3.6734 -0.2320 3.2630 0
M  V30 68 Ga 2.9421 -0.3923 2.0033 0
M  V30 69 Ba 2.1276 -0.4866 0.7885 0
M  V30 70 Ba -3.9131 0.6794 -1.6486 0
M  V30 71 Ga -3.1711 1.4693 -0.6375 0
M  V30 72 Ba -2.4947 2.2795 0.4030 0
M  V30 73 Ba 0.9146 -8.4496 -0.6648 0
M  V30 74 Ga 1.5025 -8.4950 0.6712 0
M  V30 75 Ba 2.0690 -8.3507 2.0095 0
M  V30 76 Ba 2.4500 2.7808 -3.1780 0
M  V30 77 Ga 2.2372 2.0583 -1.9099 0
M  V30 78 Ba 2.0448 1.3436 -0.6341 0
M  V30 79 Ba -2.0107 3.8713 1.9009 0
M  V30 80 Ga -3.1334 3.3403 2.7038 0
M  V30 81 Ba -4.1475 2.5613 3.4447 0
M  V30 82 Ba 2.6128 2.0478 3.7604 0
M  V30 83 Ga 1.5280 2.5161 2.8562 0
M  V30 84 Ba 0.5069 3.1141 1.9549 0
M  V30 85 Ba 0.8121 5.9626 -1.5666 0
M  V30 86 Ga 0.5719 5.0203 -0.4578 0
M  V30 87 Ba 0.3149 4.0720 0.6422 0
M  V30 88 Ba 0.0942 2.5687 -3.9051 0
M  V30 89 Ga -0.6004 3.7267 -3.2701 0
M  V30 90 Ba -1.1099 5.0143 -2.7142 0
M  V30 91 Ba 2.5937 4.3464 -5.0350 0
M  V30 92 Ga 2.0892 5.6323 -4.4705 0
M  V30 93 Ba 1.4029 6.7874 -3.8215 0
M  V30 94 Ba -0.6331 -6.7954 -0.1026 0
M  V30 95 Ga -0.0858 -6.7361 1.2903 0
M  V30 96 Ba 0.5539 -6.6918 2.6438 0
M  V30 97 Ba -0.4177 -0.5849 0.9928 0
M  V30 98 Ga -1.5746 -0.4839 1.9300 0
M  V30 99 Ba -2.7332 -0.4547 2.8704 0
M  V30 END ATOM
M  V30 BEGIN BOND
M  V30 1 1 1 2
M  V30 2 1 1 3
M  V30 3 1 1 4
M  V30 4 1 1 5
M  V30 5 1 6 7
M  V30 6 1 6 8
M  V30 7 1 6 9
M  V30 8 1 6 10
M  V30 9 1 11 12
M  V30 10 1 11 13
M  V30 11 1 11 14
M  V30 12 1 11 15
M  V30 13 1 16 17
M  V30 14 1 16 18
M  V30 15 1 16 19
M  V30 16 1 16 20
M  V30 17 1 21 22
M  V30 18 1 21 23
M  V30 19 1 21 24
M  V30 20 1 21 25
M  V30 21 1 26 27
M  V30 22 1 26 28
M  V30 23 1 26 29
M  V30 24 1 26 30
M  V30 25 1 31 32
M  V30 26 1 31 33
M  V30 27 1 31 34
M  V30 28 1 31 35
M  V30 29 1 36 37
M  V30 30 1 36 38
M  V30 31 1 36 39
M  V30 32 1 36 40
M  V30 33 1 41 42
M  V30 34 1 41 43
M  V30 35 1 41 44
M  V30 36 1 41 45
M  V30 37 1 46 47
M  V30 38 1 47 48
M  V30 39 1 49 50
M  V30 40 1 50 51
M  V30 41 1 52 53
M  V30 42 1 53 54
M  V30 43 1 55 56
M  V30 44 1 56 57
M  V30 45 1 58 59
M  V30 46 1 59 60
M  V30 47 1 61 62
M  V30 48 1 62 63
M  V30 49 1 64 65
M  V30 50 1 65 66
M  V30 51 1 67 68
M  V30 52 1 68 69
M  V30 53 1 70 71
M  V30 54 1 71 72
M  V30 55 1 73 74
M  V30 56 1 74 75
M  V30 57 1 76 77
M  V30 58 1 77 78
M  V30 59 1 79 80
M  V30 60 1 80 81
M  V30 61 1 82 83
M  V30 62 1 83 84
M  V30 63 1 85 86
M  V30 64 1 86 87
M  V30 65 1 88 89
M  V30 66 1 89 90
M  V30 67 1 91 92
M  V30 68 1 92 93
M  V30 69 1 94 95
M  V30 70 1 95 96
M  V30 71 1 97 98
M  V30 72 1 98 99
M  V30 73 1 2 91
M  V30 74 1 3 49
M  V30 75 1 4 88
M  V30 76 1 5 76
M  V30 77 1 7 85
M  V30 78 1 8 93
M  V30 79 1 9 51
M  V30 80 1 10 90
M  V30 81 1 12 64
M  V30 82 1 13 46
M  V30 83 1 14 70
M  V30 84 1 15 52
M  V30 85 1 17 58
M  V30 86 1 18 61
M  V30 87 1 19 67
M  V30 88 1 20 82
M  V30 89 1 22 94
M  V30 90 1 23 55
M  V30 91 1 24 73
M  V30 92 1 25 54
M  V30 93 1 27 97
M  V30 94 1 28 66
M  V30 95 1 29 69
M  V30 96 1 30 78
M  V30 97 1 32 72
M  V30 98 1 33 87
M  V30 99 1 34 84
M  V30 100 1 35 79
M  V30 101 1 37 48
M  V30 102 1 38 81
M  V30 103 1 39 63
M  V30 104 1 40 99
M  V30 105 1 42 57
M  V30 106 1 43 75
M  V30 107 1 44 96
M  V30 108 1 45 60
M  V30 END BOND
M  V30 END CTAB
M  END

$$$$
