
     RDKit          3D

  0  0  0  0  0  0  0  0  0  0999 V3000
M  V30 BEGIN CTAB
M  V30 COUNTS 99 108 0 0 0
M  V30 BEGIN ATOM
M  V30 1 Pd 4.9454 -0.6302 -1.7743 0
M  V30 2 Pb 4.6938 -0.4846 -2.7319 0
M  V30 3 Pb 5.2070 -0.7559 -0.8205 0
M  V30 4 Pb 5.8590 -0.2234 -1.9426 0
M  V30 5 Pb 4.0156 -0.9676 -1.6032 0
M  V30 6 Pd 7.8291 4.0415 -0.6511 0
M  V30 7 Pb 7.4145 4.8103 -0.1696 0
M  V30 8 Pb 8.0436 3.1897 -1.1485 0
M  V30 9 Pb 7.9872 3.5557 0.2046 0
M  V30 10 Pb 7.5591 4.4959 -1.5006 0
M  V30 11 Pd -0.3051 -4.1366 -0.7683 0
M  V30 12 Pb -0.8576 -3.8409 -1.5465 0
M  V30 13 Pb 0.1801 -4.3309 0.0830 0
M  V30 14 Pb -0.9798 -4.8493 -0.5875 0
M  V30 15 Pb 0.3799 -3.4334 -0.9515 0
M  V30 16 Pd -6.6816 -4.6708 2.4530 0
M  V30 17 Pb -6.3814 -5.0924 3.3054 0
M  V30 18 Pb -6.9106 -4.1940 1.6023 0
M  V30 19 Pb -7.0018 -3.8805 2.9873 0
M  V30 20 Pb -6.2210 -5.3825 1.9317 0
M  V30 21 Pd 0.5949 0.9543 -3.2468 0
M  V30 22 Pb -0.0390 1.1575 -2.5023 0
M  V30 23 Pb 0.2361 1.7245 -3.7736 0
M  V30 24 Pb 1.0055 0.2234 -2.7036 0
M  V30 25 Pb 1.2845 0.7660 -3.9421 0
M  V30 26 Pd 1.4440 5.8904 -2.3098 0
M  V30 27 Pb 2.0137 6.2350 -1.5630 0
M  V30 28 Pb 0.7727 5.5333 -1.6625 0
M  V30 29 Pb 2.2096 6.1047 -2.9145 0
M  V30 30 Pb 0.9074 5.5085 -3.0624 0
M  V30 31 Pd -4.2589 -0.7049 -0.5779 0
M  V30 32 Pb -3.4668 -0.0949 -0.5879 0
M  V30 33 Pb -4.6222 -0.1038 0.1372 0
M  V30 34 Pb -3.8655 -1.2669 -1.3110 0
M  V30 35 Pb -5.0817 -1.2821 -0.5714 0
M  V30 36 Pd 0.5467 -0.3827 1.9191 0
M  V30 37 Pb 0.2594 -0.0946 2.8349 0
M  V30 38 Pb 0.8225 -1.2876 2.2480 0
M  V30 39 Pb 0.8210 -0.6854 1.0019 0
M  V30 40 Pb 0.2317 0.5062 1.5790 0
M  V30 41 Pd -4.1288 -0.3466 4.8608 0
M  V30 42 Pb -5.0569 -0.7307 4.7512 0
M  V30 43 Pb -3.9415 -1.0518 5.5405 0
M  V30 44 Pb -4.3583 0.3038 4.1372 0
M  V30 45 Pb -3.1947 0.0047 4.9548 0
M  V30 46 Ag -1.5158 -5.3558 -0.4645 0
M  V30 47 Fe -3.6479 -5.7551 0.4912 0
M  V30 48 Ag -5.7684 -5.8317 1.5468 0
M  V30 49 Ag 7.2497 4.8451 -2.0883 0
M  V30 50 Fe 5.1377 5.5998 -2.8681 0
M  V30 51 Ag 2.8692 6.1801 -3.2610 0
M  V30 52 Ag 5.5017 -0.7056 -0.1400 0
M  V30 53 Fe 6.8390 0.9920 0.8054 0
M  V30 54 Ag 7.9660 3.0632 0.7596 0
M  V30 55 Ag 6.9550 5.3312 0.1059 0
M  V30 56 Fe 4.7339 6.0558 -0.3105 0
M  V30 57 Ag 2.5156 6.4586 -1.0523 0
M  V30 58 Ag 0.3278 5.1776 -1.1762 0
M  V30 59 Fe 0.1087 3.1897 0.1070 0
M  V30 60 Ag -0.0353 1.1743 1.3576 0
M  V30 61 Ag -6.0739 -5.2335 3.9670 0
M  V30 62 Fe -4.8619 -3.7745 5.3696 0
M  V30 63 Ag -3.9169 -1.6861 5.9266 0
M  V30 64 Ba 0.0374 0.1536 3.5094 0
M  V30 65 Ga -1.2317 0.1896 4.2663 0
M  V30 66 Ba -2.4862 0.2406 5.0465 0
M  V30 67 Ba -4.8287 0.4057 0.6516 0
M  V30 68 Ga -4.7124 0.5693 2.1153 0
M  V30 69 Ba -4.6025 0.7412 3.5786 0
M  V30 70 Ba -7.1939 -3.2749 3.3986 0
M  V30 71 Ga -6.4565 -2.1472 4.0267 0
M  V30 72 Ba -5.7626 -1.0019 4.6720 0
M  V30 73 Ba 6.5503 0.0746 -2.0728 0
M  V30 74 Ga 7.3248 1.3140 -1.7765 0
M  V30 75 Ba 8.1472 2.5294 -1.5111 0
M  V30 76 Ba -0.0042 2.3309 -4.1432 0
M  V30 77 Ga 0.2268 3.7689 -3.9110 0
M  V30 78 Ba 0.5073 5.1847 -3.6079 0
M  V30 79 Ba 3.3006 -1.1938 -1.5269 0
M  V30 80 Ga 2.1831 -1.0554 -0.5660 0
M  V30 81 Ba 1.0078 -0.9723 0.3299 0
M  V30 82 Ba -1.3218 -3.5862 -2.0771 0
M  V30 83 Ga -2.4470 -2.6317 -1.9966 0
M  V30 84 Ba -3.5643 -1.6727 -1.8706 0
M  V30 85 Ba -0.4723 1.3261 -1.9155 0
M  V30 86 Ga -1.7014 0.8290 -1.2710 0
M  V30 87 Ba -2.9175 0.4142 -0.5485 0
M  V30 88 Ba 0.9224 -2.9278 -1.0537 0
M  V30 89 Ga 1.0980 -1.6135 -1.6963 0
M  V30 90 Ba 1.3666 -0.3001 -2.3079 0
M  V30 91 Ba 4.4735 -0.3633 -3.4392 0
M  V30 92 Ga 3.1911 0.1137 -3.9853 0
M  V30 93 Ba 1.8597 0.5981 -4.3884 0
M  V30 94 Ba -7.0576 -3.8196 0.9670 0
M  V30 95 Ga -6.3686 -2.7596 0.1979 0
M  V30 96 Ba -5.7096 -1.7005 -0.5981 0
M  V30 97 Ba 0.5261 -4.3641 0.7466 0
M  V30 98 Ga 0.8092 -3.2318 1.6491 0
M  V30 99 Ba 1.0120 -1.9930 2.4248 0
M  V30 END ATOM
M  V30 BEGIN BOND
M  V30 1 1 1 2
M  V30 2 1 1 3
M  V30 3 1 1 4
M  V30 4 1 1 5
M  V30 5 1 6 7
M  V30 6 1 6 8
M  V30 7 1 6 9
M  V30 8 1 6 10
M  V30 9 1 11 12
M  V30 10 1 11 13
M  V30 11 1 11 14
M  V30 12 1 11 15
M  V30 13 1 16 17
M  V30 14 1 16 18
M  V30 15 1 16 19
M  V30 16 1 16 20
M  V30 17 1 21 22
M  V30 18 1 21 23
M  V30 19 1 21 24
M  V30 20 1 21 25
M  V30 21 1 26 27
M  V30 22 1 26 28
M  V30 23 1 26 29
M  V30 24 1 26 30
M  V30 25 1 31 32
M  V30 26 1 31 33
M  V30 27 1 31 34
M  V30 28 1 31 35
M  V30 29 1 36 37
M  V30 30 1 36 38
M  V30 31 1 36 39
M  V30 32 1 36 40
M  V30 33 1 41 42
M  V30 34 1 41 43
M  V30 35 1 41 44
M  V30 36 1 41 45
M  V30 37 1 46 47
M  V30 38 1 47 48
M  V30 39 1 49 50
M  V30 40 1 50 51
M  V30 41 1 52 53
M  V30 42 1 53 54
M  V30 43 1 55 56
M  V30 44 1 56 57
M  V30 45 1 58 59
M  V30 46 1 59 60
M  V30 47 1 61 62
M  V30 48 1 62 63
M  V30 49 1 64 65
M  V30 50 1 65 66
M  V30 51 1 67 68
M  V30 52 1 68 69
M  V30 53 1 70 71
M  V30 54 1 71 72
M  V30 55 1 73 74
M  V30 56 1 74 75
M  V30 57 1 76 77
M  V30 58 1 77 78
M  V30 59 1 79 80
M  V30 60 1 80 81
M  V30 61 1 82 83
M  V30 62 1 83 84
M  V30 63 1 85 86
M  V30 64 1 86 87
M  V30 65 1 88 89
M  V30 66 1 89 90
M  V30 67 1 91 92
M  V30 68 1 92 93
M  V30 69 1 94 95
M  V30 70 1 95 96
M  V30 71 1 97 98
M  V30 72 1 98 99
M  V30 73 1 2 91
M  V30 74 1 3 52
M  V30 75 1 4 73
M  V30 76 1 5 79
M  V30 77 1 7 55
M  V30 78 1 8 75
M  V30 79 1 9 54
M  V30 80 1 10 49
M  V30 81 1 12 82
M  V30 82 1 13 97
M  V30 83 1 14 46
M  V30 84 1 15 88
M  V30 85 1 17 61
M  V30 86 1 18 94
M  V30 87 1 19 70
M  V30 88 1 20 48
M  V30 89 1 22 85
M  V30 90 1 23 76
M  V30 91 1 24 90
M  V30 92 1 25 93
M  V30 93 1 27 57
M  V30 94 1 28 58
M  V30 95 1 29 51
M  V30 96 1 30 78
M  V30 97 1 32 87
M  V30 98 1 33 67
M  V30 99 1 34 84
M  V30 100 1 35 96
M  V30 101 1 37 64
M  V30 102 1 38 99
M  V30 103 1 39 81
M  V30 104 1 40 60
M  V30 105 1 42 72
M  V30 106 1 43 63
M  V30 107 1 44 69
M  V30 108 1 45 66
M  V30 END BOND
M  V30 END CTAB
M  END

$$$$
