
     RDKit          3D

  0  0  0  0  0  0  0  0  0  0999 V3000
M  V30 BEGIN CTAB
M  V30 COUNTS 99 108 0 0 0
M  V30 BEGIN ATOM
M  V30 1 Pd 1.4352 -6.8498 -1.7814 0
M  V30 2 Pb 1.6451 -7.3308 -0.9330 0
M  V30 3 Pb 0.4951 -7.1779 -1.6903 0
M  V30 4 Pb 2.3766 -6.5267 -1.8523 0
M  V30 5 Pb 1.2035 -6.2883 -2.5781 0
M  V30 6 Pd 3.0844 -2.0633 -2.7413 0
M  V30 7 Pb 2.5351 -1.2128 -2.8824 0
M  V30 8 Pb 3.6211 -2.8919 -2.5934 0
M  V30 9 Pb 2.4332 -2.6066 -3.2762 0
M  V30 10 Pb 3.7336 -1.5637 -2.1841 0
M  V30 11 Pd 3.0255 1.7289 5.0718 0
M  V30 12 Pb 3.9641 2.0218 4.9353 0
M  V30 13 Pb 2.7112 2.6752 4.8568 0
M  V30 14 Pb 2.0922 1.3781 5.1981 0
M  V30 15 Pb 3.3389 0.7995 5.2479 0
M  V30 16 Pd 2.2225 4.0334 -2.8645 0
M  V30 17 Pb 2.5601 4.9719 -2.7764 0
M  V30 18 Pb 1.4848 4.3229 -3.4783 0
M  V30 19 Pb 1.9202 3.0615 -2.9560 0
M  V30 20 Pb 2.9572 3.7589 -2.2589 0
M  V30 21 Pd -3.4838 -5.3288 0.5636 0
M  V30 22 Pb -3.4032 -5.7389 1.4738 0
M  V30 23 Pb -4.0463 -4.5999 0.9489 0
M  V30 24 Pb -3.0028 -6.0901 0.1253 0
M  V30 25 Pb -3.5640 -4.8627 -0.3180 0
M  V30 26 Pd 3.1795 6.5082 1.4164 0
M  V30 27 Pb 3.4550 6.8468 0.5178 0
M  V30 28 Pb 2.8562 6.0873 2.2873 0
M  V30 29 Pb 2.2720 6.8590 1.1977 0
M  V30 30 Pb 4.1042 6.2103 1.6205 0
M  V30 31 Pd -3.1854 5.8310 -2.8153 0
M  V30 32 Pb -3.7783 5.1409 -3.2669 0
M  V30 33 Pb -3.9503 6.0909 -2.2367 0
M  V30 34 Pb -2.6109 6.4432 -2.2778 0
M  V30 35 Pb -2.4213 5.5986 -3.4225 0
M  V30 36 Pd -6.3017 1.0449 -1.7416 0
M  V30 37 Pb -6.8002 1.7755 -1.2884 0
M  V30 38 Pb -6.0443 1.6892 -2.4839 0
M  V30 39 Pb -5.7992 0.2932 -2.1696 0
M  V30 40 Pb -6.4522 0.4425 -0.9606 0
M  V30 41 Pd -0.0168 -4.9230 4.8507 0
M  V30 42 Pb -0.9191 -5.3125 4.6516 0
M  V30 43 Pb 0.3961 -5.7698 4.5223 0
M  V30 44 Pb 0.8871 -4.5491 5.0421 0
M  V30 45 Pb -0.3807 -4.0175 5.0877 0
M  V30 46 Ag -4.5122 -4.0550 1.1629 0
M  V30 47 Fe -5.5548 -2.0299 0.4992 0
M  V30 48 Ag -6.4697 -0.0237 -0.3762 0
M  V30 49 Ag -4.5580 6.1604 -1.8201 0
M  V30 50 Fe -6.1529 4.5778 -1.1204 0
M  V30 51 Ag -7.0521 2.4069 -0.9975 0
M  V30 52 Ag -3.6475 -4.4494 -0.9389 0
M  V30 53 Fe -4.5046 -2.4047 -1.7922 0
M  V30 54 Ag -5.4335 -0.3113 -2.4228 0
M  V30 55 Ag 4.1587 -1.1051 -1.7925 0
M  V30 56 Fe 4.1832 1.2307 -1.5178 0
M  V30 57 Ag 3.4879 3.4532 -1.8477 0
M  V30 58 Ag 1.6311 7.1644 0.9636 0
M  V30 59 Fe -0.2988 7.0399 -0.4098 0
M  V30 60 Ag -2.2107 6.8575 -1.8019 0
M  V30 61 Ag 1.4309 1.0267 5.2986 0
M  V30 62 Fe 0.3361 -1.0886 5.2898 0
M  V30 63 Ag -0.5563 -3.2958 5.2234 0
M  V30 64 Ag 3.5137 0.0822 5.3559 0
M  V30 65 Fe 2.6433 -2.1218 5.3056 0
M  V30 66 Ag 1.5397 -4.2160 5.1846 0
M  V30 67 Ag 4.6131 2.3164 4.7387 0
M  V30 68 Fe 5.1641 4.1119 3.3197 0
M  V30 69 Ag 4.7349 5.9114 1.8641 0
M  V30 70 Ag 1.7401 -7.6219 -0.2514 0
M  V30 71 Fe 1.3036 -7.1535 2.0317 0
M  V30 72 Ag 0.7131 -6.3568 4.1856 0
M  V30 73 Ba 2.4736 3.3967 4.7340 0
M  V30 74 Ga 2.5808 4.5479 3.7811 0
M  V30 75 Ba 2.5798 5.7877 2.9398 0
M  V30 76 Ba 2.0677 -0.6101 -2.9966 0
M  V30 77 Ga 1.9609 0.8855 -2.9921 0
M  V30 78 Ba 1.6394 2.3491 -3.0463 0
M  V30 79 Ba -3.3691 -5.9989 2.1785 0
M  V30 80 Ga -2.4593 -5.8199 3.3298 0
M  V30 81 Ba -1.5693 -5.6599 4.4993 0
M  V30 82 Ba 0.9418 4.5285 -3.9567 0
M  V30 83 Ga -0.4636 4.9830 -3.8908 0
M  V30 84 Ba -1.8689 5.4420 -3.9098 0
M  V30 85 Ba 1.0484 -5.8184 -3.1446 0
M  V30 86 Ga 1.4876 -4.4355 -3.4297 0
M  V30 87 Ba 1.9637 -3.0543 -3.6581 0
M  V30 88 Ba 2.8653 5.6512 -2.6757 0
M  V30 89 Ga 3.2428 6.3968 -1.4593 0
M  V30 90 Ba 3.5817 7.0649 -0.1878 0
M  V30 91 Ba 3.0715 -6.2575 -1.9152 0
M  V30 92 Ga 3.5758 -4.9030 -2.1935 0
M  V30 93 Ba 4.0046 -3.5235 -2.4755 0
M  V30 94 Ba -0.1923 -7.4582 -1.5833 0
M  V30 95 Ga -1.4332 -7.0326 -0.9065 0
M  V30 96 Ba -2.7035 -6.6701 -0.2477 0
M  V30 97 Ba -4.2316 4.6231 -3.6031 0
M  V30 98 Ga -5.0218 3.3994 -3.2671 0
M  V30 99 Ba -5.8444 2.1709 -3.0448 0
M  V30 END ATOM
M  V30 BEGIN BOND
M  V30 1 1 1 2
M  V30 2 1 1 3
M  V30 3 1 1 4
M  V30 4 1 1 5
M  V30 5 1 6 7
M  V30 6 1 6 8
M  V30 7 1 6 9
M  V30 8 1 6 10
M  V30 9 1 11 12
M  V30 10 1 11 13
M  V30 11 1 11 14
M  V30 12 1 11 15
M  V30 13 1 16 17
M  V30 14 1 16 18
M  V30 15 1 16 19
M  V30 16 1 16 20
M  V30 17 1 21 22
M  V30 18 1 21 23
M  V30 19 1 21 24
M  V30 20 1 21 25
M  V30 21 1 26 27
M  V30 22 1 26 28
M  V30 23 1 26 29
M  V30 24 1 26 30
M  V30 25 1 31 32
M  V30 26 1 31 33
M  V30 27 1 31 34
M  V30 28 1 31 35
M  V30 29 1 36 37
M  V30 30 1 36 38
M  V30 31 1 36 39
M  V30 32 1 36 40
M  V30 33 1 41 42
M  V30 34 1 41 43
M  V30 35 1 41 44
M  V30 36 1 41 45
M  V30 37 1 46 47
M  V30 38 1 47 48
M  V30 39 1 49 50
M  V30 40 1 50 51
M  V30 41 1 52 53
M  V30 42 1 53 54
M  V30 43 1 55 56
M  V30 44 1 56 57
M  V30 45 1 58 59
M  V30 46 1 59 60
M  V30 47 1 61 62
M  V30 48 1 62 63
M  V30 49 1 64 65
M  V30 50 1 65 66
M  V30 51 1 67 68
M  V30 52 1 68 69
M  V30 53 1 70 71
M  V30 54 1 71 72
M  V30 55 1 73 74
M  V30 56 1 74 75
M  V30 57 1 76 77
M  V30 58 1 77 78
M  V30 59 1 79 80
M  V30 60 1 80 81
M  V30 61 1 82 83
M  V30 62 1 83 84
M  V30 63 1 85 86
M  V30 64 1 86 87
M  V30 65 1 88 89
M  V30 66 1 89 90
M  V30 67 1 91 92
M  V30 68 1 92 93
M  V30 69 1 94 95
M  V30 70 1 95 96
M  V30 71 1 97 98
M  V30 72 1 98 99
M  V30 73 1 2 70
M  V30 74 1 3 94
M  V30 75 1 4 91
M  V30 76 1 5 85
M  V30 77 1 7 76
M  V30 78 1 8 93
M  V30 79 1 9 87
M  V30 80 1 10 55
M  V30 81 1 12 67
M  V30 82 1 13 73
M  V30 83 1 14 61
M  V30 84 1 15 64
M  V30 85 1 17 88
M  V30 86 1 18 82
M  V30 87 1 19 78
M  V30 88 1 20 57
M  V30 89 1 22 79
M  V30 90 1 23 46
M  V30 91 1 24 96
M  V30 92 1 25 52
M  V30 93 1 27 90
M  V30 94 1 28 75
M  V30 95 1 29 58
M  V30 96 1 30 69
M  V30 97 1 32 97
M  V30 98 1 33 49
M  V30 99 1 34 60
M  V30 100 1 35 84
M  V30 101 1 37 51
M  V30 102 1 38 99
M  V30 103 1 39 54
M  V30 104 1 40 48
M  V30 105 1 42 81
M  V30 106 1 43 72
M  V30 107 1 44 66
M  V30 108 1 45 63
M  V30 END BOND
M  V30 END CTAB
M  END

$$$$
