
     RDKit          3D

  0  0  0  0  0  0  0  0  0  0999 V3000
M  V30 BEGIN CTAB
M  V30 COUNTS 99 108 0 0 0
M  V30 BEGIN ATOM
M  V30 1 Pd -0.9769 -7.0137 4.0438 0
M  V30 2 Pb -1.7983 -7.4144 4.4444 0
M  V30 3 Pb -0.6949 -6.7392 4.9689 0
M  V30 4 Pb -0.1164 -6.6575 3.6778 0
M  V30 5 Pb -1.3055 -7.2514 3.1243 0
M  V30 6 Pd 3.8937 -1.7108 0.8094 0
M  V30 7 Pb 3.6796 -1.1987 1.6407 0
M  V30 8 Pb 4.0592 -0.8371 0.3575 0
M  V30 9 Pb 4.0639 -2.1971 -0.0463 0
M  V30 10 Pb 3.7023 -2.5846 1.2561 0
M  V30 11 Pd 1.9328 3.5412 -6.5867 0
M  V30 12 Pb 1.3029 4.0878 -7.1307 0
M  V30 13 Pb 1.3335 2.7438 -6.6626 0
M  V30 14 Pb 2.5888 2.9918 -6.0676 0
M  V30 15 Pb 2.4967 4.3741 -6.4527 0
M  V30 16 Pd 1.8274 8.8951 -4.3665 0
M  V30 17 Pb 2.3001 8.6844 -3.4985 0
M  V30 18 Pb 1.1647 9.4267 -3.8448 0
M  V30 19 Pb 2.4325 8.2528 -4.8655 0
M  V30 20 Pb 1.2993 9.0194 -5.2010 0
M  V30 21 Pd -3.8230 -4.6978 7.2277 0
M  V30 22 Pb -4.6572 -4.5359 6.7124 0
M  V30 23 Pb -3.6767 -3.7131 7.3258 0
M  V30 24 Pb -2.9014 -4.9064 7.5515 0
M  V30 25 Pb -3.9593 -5.6684 7.0502 0
M  V30 26 Pd -3.8817 -4.5196 0.0926 0
M  V30 27 Pb -4.4920 -4.5987 0.8791 0
M  V30 28 Pb -3.2981 -4.4260 -0.7175 0
M  V30 29 Pb -4.2083 -3.5759 0.0339 0
M  V30 30 Pb -3.5116 -5.4425 0.2343 0
M  V30 31 Pd 1.8559 -1.3705 -4.2900 0
M  V30 32 Pb 2.5047 -1.9188 -3.7593 0
M  V30 33 Pb 1.2358 -0.8513 -4.8797 0
M  V30 34 Pb 1.1416 -2.0572 -4.1424 0
M  V30 35 Pb 2.5529 -0.6630 -4.4100 0
M  V30 36 Pd -1.9439 1.5862 3.3069 0
M  V30 37 Pb -1.0137 1.6495 3.6613 0
M  V30 38 Pb -1.6522 1.9400 2.4183 0
M  V30 39 Pb -2.8115 1.3654 2.8645 0
M  V30 40 Pb -2.2442 1.2055 4.1831 0
M  V30 41 Pd 1.1742 5.3995 -0.0340 0
M  V30 42 Pb 0.5169 4.6561 0.0948 0
M  V30 43 Pb 1.8820 4.7262 -0.2413 0
M  V30 44 Pb 1.8093 6.1405 -0.2943 0
M  V30 45 Pb 0.4798 6.0937 0.1402 0
M  V30 46 Ag -3.5756 -2.9698 7.3457 0
M  V30 47 Fe -3.0168 -1.0074 6.1282 0
M  V30 48 Ag -2.4484 0.9082 4.8422 0
M  V30 49 Ag -5.1814 -4.4878 6.1870 0
M  V30 50 Fe -5.2391 -4.5190 3.8177 0
M  V30 51 Ag -4.9593 -4.5820 1.4642 0
M  V30 52 Ag 3.4767 -0.7629 2.2158 0
M  V30 53 Fe 1.6808 0.4657 3.1632 0
M  V30 54 Ag -0.2966 1.5775 3.8598 0
M  V30 55 Ag -2.8697 -4.3926 -1.3357 0
M  V30 56 Fe -1.1310 -3.4557 -2.6593 0
M  V30 57 Ag 0.5958 -2.5613 -4.0274 0
M  V30 58 Ag 0.6636 9.6436 -3.3414 0
M  V30 59 Fe -0.0168 8.4929 -1.3974 0
M  V30 60 Ag 0.0482 6.6992 0.1343 0
M  V30 61 Ag 0.5560 -6.4190 3.4443 0
M  V30 62 Fe 2.0257 -4.8097 2.4998 0
M  V30 63 Ag 3.5560 -3.2525 1.5640 0
M  V30 64 Ag 4.1527 -0.1651 0.0440 0
M  V30 65 Fe 3.3111 2.0393 -0.2056 0
M  V30 66 Ag 2.4128 4.2258 -0.4100 0
M  V30 67 Ag -4.4555 -2.8717 0.1142 0
M  V30 68 Fe -4.0453 -0.8092 1.2186 0
M  V30 69 Ag -3.3731 1.1162 2.4358 0
M  V30 70 Ag 0.8982 4.6110 -7.4681 0
M  V30 71 Fe 0.5995 6.9078 -7.0248 0
M  V30 72 Ag 0.9126 8.9124 -5.8240 0
M  V30 73 Ba 2.6384 8.5248 -2.8360 0
M  V30 74 Ga 2.4361 7.5966 -1.6895 0
M  V30 75 Ba 2.2828 6.6922 -0.5166 0
M  V30 76 Ba -0.5235 -6.5186 5.6708 0
M  V30 77 Ga -1.3057 -5.8189 6.7138 0
M  V30 78 Ba -2.1913 -5.1170 7.6687 0
M  V30 79 Ba 2.9272 4.9995 -6.3620 0
M  V30 80 Ga 2.8526 6.3731 -5.7817 0
M  V30 81 Ba 2.8861 7.7624 -5.2360 0
M  V30 82 Ba 0.8677 2.1558 -6.6834 0
M  V30 83 Ga 0.8282 0.8385 -6.0187 0
M  V30 84 Ba 0.7884 -0.4787 -5.3540 0
M  V30 85 Ba 3.0872 2.5714 -5.6956 0
M  V30 86 Ga 3.0766 1.2254 -5.0906 0
M  V30 87 Ba 3.0661 -0.1206 -4.4854 0
M  V30 88 Ba -1.5803 -7.4347 2.4454 0
M  V30 89 Ga -2.3920 -6.7671 1.4010 0
M  V30 90 Ba -3.2026 -6.1225 0.3415 0
M  V30 91 Ba -2.3898 -7.7022 4.8000 0
M  V30 92 Ga -3.2574 -7.1075 5.8264 0
M  V30 93 Ba -4.0382 -6.3782 6.8354 0
M  V30 94 Ba -1.4951 2.1629 1.7196 0
M  V30 95 Ga -0.6979 3.1594 0.9792 0
M  V30 96 Ba 0.0312 4.0838 0.0901 0
M  V30 97 Ba 4.1677 -2.5590 -0.6936 0
M  V30 98 Ga 3.5822 -2.4420 -2.0428 0
M  V30 99 Ba 3.0099 -2.3432 -3.3991 0
M  V30 END ATOM
M  V30 BEGIN BOND
M  V30 1 1 1 2
M  V30 2 1 1 3
M  V30 3 1 1 4
M  V30 4 1 1 5
M  V30 5 1 6 7
M  V30 6 1 6 8
M  V30 7 1 6 9
M  V30 8 1 6 10
M  V30 9 1 11 12
M  V30 10 1 11 13
M  V30 11 1 11 14
M  V30 12 1 11 15
M  V30 13 1 16 17
M  V30 14 1 16 18
M  V30 15 1 16 19
M  V30 16 1 16 20
M  V30 17 1 21 22
M  V30 18 1 21 23
M  V30 19 1 21 24
M  V30 20 1 21 25
M  V30 21 1 26 27
M  V30 22 1 26 28
M  V30 23 1 26 29
M  V30 24 1 26 30
M  V30 25 1 31 32
M  V30 26 1 31 33
M  V30 27 1 31 34
M  V30 28 1 31 35
M  V30 29 1 36 37
M  V30 30 1 36 38
M  V30 31 1 36 39
M  V30 32 1 36 40
M  V30 33 1 41 42
M  V30 34 1 41 43
M  V30 35 1 41 44
M  V30 36 1 41 45
M  V30 37 1 46 47
M  V30 38 1 47 48
M  V30 39 1 49 50
M  V30 40 1 50 51
M  V30 41 1 52 53
M  V30 42 1 53 54
M  V30 43 1 55 56
M  V30 44 1 56 57
M  V30 45 1 58 59
M  V30 46 1 59 60
M  V30 47 1 61 62
M  V30 48 1 62 63
M  V30 49 1 64 65
M  V30 50 1 65 66
M  V30 51 1 67 68
M  V30 52 1 68 69
M  V30 53 1 70 71
M  V30 54 1 71 72
M  V30 55 1 73 74
M  V30 56 1 74 75
M  V30 57 1 76 77
M  V30 58 1 77 78
M  V30 59 1 79 80
M  V30 60 1 80 81
M  V30 61 1 82 83
M  V30 62 1 83 84
M  V30 63 1 85 86
M  V30 64 1 86 87
M  V30 65 1 88 89
M  V30 66 1 89 90
M  V30 67 1 91 92
M  V30 68 1 92 93
M  V30 69 1 94 95
M  V30 70 1 95 96
M  V30 71 1 97 98
M  V30 72 1 98 99
M  V30 73 1 2 91
M  V30 74 1 3 76
M  V30 75 1 4 61
M  V30 76 1 5 88
M  V30 77 1 7 52
M  V30 78 1 8 64
M  V30 79 1 9 97
M  V30 80 1 10 63
M  V30 81 1 12 70
M  V30 82 1 13 82
M  V30 83 1 14 85
M  V30 84 1 15 79
M  V30 85 1 17 73
M  V30 86 1 18 58
M  V30 87 1 19 81
M  V30 88 1 20 72
M  V30 89 1 22 49
M  V30 90 1 23 46
M  V30 91 1 24 78
M  V30 92 1 25 93
M  V30 93 1 27 51
M  V30 94 1 28 55
M  V30 95 1 29 67
M  V30 96 1 30 90
M  V30 97 1 32 99
M  V30 98 1 33 84
M  V30 99 1 34 57
M  V30 100 1 35 87
M  V30 101 1 37 54
M  V30 102 1 38 94
M  V30 103 1 39 69
M  V30 104 1 40 48
M  V30 105 1 42 96
M  V30 106 1 43 66
M  V30 107 1 44 75
M  V30 108 1 45 60
M  V30 END BOND
M  V30 END CTAB
M  END

$$$$
