
     RDKit          3D

  0  0  0  0  0  0  0  0  0  0999 V3000
M  V30 BEGIN CTAB
M  V30 COUNTS 99 108 0 0 0
M  V30 BEGIN ATOM
M  V30 1 Pd -4.6135 0.9796 -2.2265 0
M  V30 2 Pb -4.5821 1.8895 -1.8195 0
M  V30 3 Pb -4.6730 0.0703 -2.6462 0
M  V30 4 Pb -5.2545 0.7055 -1.5087 0
M  V30 5 Pb -3.8994 1.2862 -2.8559 0
M  V30 6 Pd 2.1441 -5.2097 -5.5316 0
M  V30 7 Pb 2.3407 -4.9984 -4.5777 0
M  V30 8 Pb 1.9196 -5.4126 -6.4825 0
M  V30 9 Pb 2.8316 -4.5321 -5.8057 0
M  V30 10 Pb 1.4293 -5.8601 -5.2566 0
M  V30 11 Pd 3.0150 3.4324 4.1974 0
M  V30 12 Pb 2.2642 3.6867 4.8123 0
M  V30 13 Pb 3.7700 3.2065 3.5748 0
M  V30 14 Pb 3.4824 2.9947 4.9682 0
M  V30 15 Pb 2.5439 3.8922 3.4466 0
M  V30 16 Pd 1.7878 -0.7361 7.0560 0
M  V30 17 Pb 2.5451 -0.1062 7.2230 0
M  V30 18 Pb 1.1525 -0.1687 7.5748 0
M  V30 19 Pb 2.3904 -1.2575 6.4587 0
M  V30 20 Pb 1.0016 -1.3039 6.8085 0
M  V30 21 Pd 4.4655 -0.1531 0.0487 0
M  V30 22 Pb 4.1322 -0.9908 -0.3797 0
M  V30 23 Pb 4.8085 0.6629 0.5217 0
M  V30 24 Pb 4.4760 -0.6569 0.9102 0
M  V30 25 Pb 4.4847 0.3358 -0.8281 0
M  V30 26 Pd -4.8479 1.1078 5.2786 0
M  V30 27 Pb -4.2791 1.3250 6.0702 0
M  V30 28 Pb -5.1409 2.0620 5.2482 0
M  V30 29 Pb -5.3825 0.8794 4.4618 0
M  V30 30 Pb -4.4514 0.1902 5.3115 0
M  V30 31 Pd -2.0464 5.1421 3.5345 0
M  V30 32 Pb -2.5774 5.2329 2.6965 0
M  V30 33 Pb -2.9080 5.0905 4.0438 0
M  V30 34 Pb -1.2063 5.1846 2.9945 0
M  V30 35 Pb -1.4991 4.9987 4.3602 0
M  V30 36 Pd 2.3644 0.1988 -5.3970 0
M  V30 37 Pb 3.0016 0.5604 -4.7099 0
M  V30 38 Pb 1.7212 -0.0975 -6.1005 0
M  V30 39 Pb 3.0196 -0.5122 -5.6640 0
M  V30 40 Pb 1.6594 0.8615 -5.1508 0
M  V30 41 Pd -2.3944 -4.8982 -6.9503 0
M  V30 42 Pb -1.7012 -5.2384 -7.5830 0
M  V30 43 Pb -3.0459 -4.5211 -6.2893 0
M  V30 44 Pb -2.3701 -4.0368 -7.4442 0
M  V30 45 Pb -2.2241 -5.6940 -6.3732 0
M  V30 46 Ag 2.4852 -4.8220 -3.8668 0
M  V30 47 Fe 3.1929 -3.2099 -2.2767 0
M  V30 48 Ag 3.8894 -1.6544 -0.6266 0
M  V30 49 Ag -4.5536 2.5709 -1.5141 0
M  V30 50 Fe -3.7922 3.9645 0.2465 0
M  V30 51 Ag -2.9709 5.2483 2.0627 0
M  V30 52 Ag 2.8411 -1.5808 5.9602 0
M  V30 53 Fe 3.7006 -1.3818 3.7591 0
M  V30 54 Ag 4.4789 -1.0563 1.5428 0
M  V30 55 Ag 0.6031 0.2406 7.8726 0
M  V30 56 Fe -1.6155 0.9359 7.4035 0
M  V30 57 Ag -3.8009 1.4432 6.6335 0
M  V30 58 Ag 0.3645 -1.6437 6.6022 0
M  V30 59 Fe -1.8834 -1.2068 5.9694 0
M  V30 60 Ag -4.0546 -0.4427 5.3814 0
M  V30 61 Ag -5.6824 0.5425 -0.9136 0
M  V30 62 Fe -5.7899 0.5910 1.4606 0
M  V30 63 Ag -5.7583 0.6993 3.8351 0
M  V30 64 Ag -3.3280 1.5835 -3.2414 0
M  V30 65 Fe -1.1332 1.4598 -4.1404 0
M  V30 66 Ag 1.0623 1.2974 -5.0313 0
M  V30 67 Ag 1.1876 -0.2642 -6.5985 0
M  V30 68 Fe -0.5438 -1.7248 -7.2970 0
M  V30 69 Ag -2.1781 -3.3826 -7.7401 0
M  V30 70 Ag -4.7593 -0.6153 -2.9460 0
M  V30 71 Fe -4.1172 -2.4049 -4.3739 0
M  V30 72 Ag -3.5166 -4.2219 -5.7853 0
M  V30 73 Ba 4.5415 0.7251 -1.4711 0
M  V30 74 Ga 3.9749 0.7496 -2.8382 0
M  V30 75 Ba 3.4887 0.8789 -4.2301 0
M  V30 76 Ba 2.1830 4.2501 2.8971 0
M  V30 77 Ga 0.8003 4.7316 2.7299 0
M  V30 78 Ba -0.5854 5.2084 2.5749 0
M  V30 79 Ba 0.8671 -6.3319 -5.0802 0
M  V30 80 Ga -0.5604 -6.3504 -5.4632 0
M  V30 81 Ba -1.9578 -6.2350 -5.9299 0
M  V30 82 Ba 1.6774 -5.5756 -7.1707 0
M  V30 83 Ga 0.2958 -5.5453 -7.6754 0
M  V30 84 Ba -1.1327 -5.4591 -8.0161 0
M  V30 85 Ba 1.7078 3.8910 5.2773 0
M  V30 86 Ga 0.3213 4.3791 5.1219 0
M  V30 87 Ba -1.0646 4.8665 4.9585 0
M  V30 88 Ba 3.8104 2.6821 5.5686 0
M  V30 89 Ga 3.4855 1.5360 6.4405 0
M  V30 90 Ba 3.1135 0.3789 7.2781 0
M  V30 91 Ba 3.3464 -4.0136 -5.9899 0
M  V30 92 Ga 3.4176 -2.5367 -5.9332 0
M  V30 93 Ba 3.4905 -1.0599 -5.8772 0
M  V30 94 Ba -5.2807 2.7980 5.2498 0
M  V30 95 Ga -4.4519 3.9413 4.8197 0
M  V30 96 Ba -3.5823 5.0484 4.3750 0
M  V30 97 Ba 4.3411 3.0788 3.0988 0
M  V30 98 Ga 4.6819 2.1497 1.9981 0
M  V30 99 Ba 5.0895 1.2575 0.8895 0
M  V30 END ATOM
M  V30 BEGIN BOND
M  V30 1 1 1 2
M  V30 2 1 1 3
M  V30 3 1 1 4
M  V30 4 1 1 5
M  V30 5 1 6 7
M  V30 6 1 6 8
M  V30 7 1 6 9
M  V30 8 1 6 10
M  V30 9 1 11 12
M  V30 10 1 11 13
M  V30 11 1 11 14
M  V30 12 1 11 15
M  V30 13 1 16 17
M  V30 14 1 16 18
M  V30 15 1 16 19
M  V30 16 1 16 20
M  V30 17 1 21 22
M  V30 18 1 21 23
M  V30 19 1 21 24
M  V30 20 1 21 25
M  V30 21 1 26 27
M  V30 22 1 26 28
M  V30 23 1 26 29
M  V30 24 1 26 30
M  V30 25 1 31 32
M  V30 26 1 31 33
M  V30 27 1 31 34
M  V30 28 1 31 35
M  V30 29 1 36 37
M  V30 30 1 36 38
M  V30 31 1 36 39
M  V30 32 1 36 40
M  V30 33 1 41 42
M  V30 34 1 41 43
M  V30 35 1 41 44
M  V30 36 1 41 45
M  V30 37 1 46 47
M  V30 38 1 47 48
M  V30 39 1 49 50
M  V30 40 1 50 51
M  V30 41 1 52 53
M  V30 42 1 53 54
M  V30 43 1 55 56
M  V30 44 1 56 57
M  V30 45 1 58 59
M  V30 46 1 59 60
M  V30 47 1 61 62
M  V30 48 1 62 63
M  V30 49 1 64 65
M  V30 50 1 65 66
M  V30 51 1 67 68
M  V30 52 1 68 69
M  V30 53 1 70 71
M  V30 54 1 71 72
M  V30 55 1 73 74
M  V30 56 1 74 75
M  V30 57 1 76 77
M  V30 58 1 77 78
M  V30 59 1 79 80
M  V30 60 1 80 81
M  V30 61 1 82 83
M  V30 62 1 83 84
M  V30 63 1 85 86
M  V30 64 1 86 87
M  V30 65 1 88 89
M  V30 66 1 89 90
M  V30 67 1 91 92
M  V30 68 1 92 93
M  V30 69 1 94 95
M  V30 70 1 95 96
M  V30 71 1 97 98
M  V30 72 1 98 99
M  V30 73 1 2 49
M  V30 74 1 3 70
M  V30 75 1 4 61
M  V30 76 1 5 64
M  V30 77 1 7 46
M  V30 78 1 8 82
M  V30 79 1 9 91
M  V30 80 1 10 79
M  V30 81 1 12 85
M  V30 82 1 13 97
M  V30 83 1 14 88
M  V30 84 1 15 76
M  V30 85 1 17 90
M  V30 86 1 18 55
M  V30 87 1 19 52
M  V30 88 1 20 58
M  V30 89 1 22 48
M  V30 90 1 23 99
M  V30 91 1 24 54
M  V30 92 1 25 73
M  V30 93 1 27 57
M  V30 94 1 28 94
M  V30 95 1 29 63
M  V30 96 1 30 60
M  V30 97 1 32 51
M  V30 98 1 33 96
M  V30 99 1 34 78
M  V30 100 1 35 87
M  V30 101 1 37 75
M  V30 102 1 38 67
M  V30 103 1 39 93
M  V30 104 1 40 66
M  V30 105 1 42 84
M  V30 106 1 43 72
M  V30 107 1 44 69
M  V30 108 1 45 81
M  V30 END BOND
M  V30 END CTAB
M  END

$$$$
