
     RDKit          3D

  0  0  0  0  0  0  0  0  0  0999 V3000
M  V30 BEGIN CTAB
M  V30 COUNTS 99 108 0 0 0
M  V30 BEGIN ATOM
M  V30 1 Pd 4.1359 -1.4167 1.5197 0
M  V30 2 Pb 4.4437 -1.4422 0.5691 0
M  V30 3 Pb 3.8464 -1.3990 2.4814 0
M  V30 4 Pb 4.7523 -0.6559 1.7349 0
M  V30 5 Pb 3.5421 -2.1760 1.2520 0
M  V30 6 Pd -3.8697 -3.3984 4.7119 0
M  V30 7 Pb -4.2940 -2.7602 4.0701 0
M  V30 8 Pb -3.4657 -4.0227 5.3740 0
M  V30 9 Pb -4.2669 -4.1789 4.2227 0
M  V30 10 Pb -3.4140 -2.6387 5.1887 0
M  V30 11 Pd -1.2020 2.4081 -6.3805 0
M  V30 12 Pb -0.3753 2.8807 -6.6765 0
M  V30 13 Pb -2.0640 1.9501 -6.1439 0
M  V30 14 Pb -1.5272 3.2841 -6.0301 0
M  V30 15 Pb -0.7833 1.5435 -6.6683 0
M  V30 16 Pd -1.1607 6.2815 0.0148 0
M  V30 17 Pb -1.2529 6.4077 -0.9714 0
M  V30 18 Pb -1.0932 6.1205 0.9942 0
M  V30 19 Pb -2.1183 6.0043 -0.0106 0
M  V30 20 Pb -0.1640 6.4717 -0.0022 0
M  V30 21 Pd -4.7919 0.2132 -2.2636 0
M  V30 22 Pb -4.9896 0.0149 -1.3039 0
M  V30 23 Pb -4.6289 0.4100 -3.2344 0
M  V30 24 Pb -4.9173 1.1799 -2.0437 0
M  V30 25 Pb -4.6709 -0.7651 -2.4306 0
M  V30 26 Pd 4.2823 4.1592 1.1590 0
M  V30 27 Pb 3.7966 4.2009 2.0262 0
M  V30 28 Pb 4.7488 4.1152 0.2760 0
M  V30 29 Pb 4.8555 3.4097 1.4968 0
M  V30 30 Pb 3.6945 4.9142 0.8142 0
M  V30 31 Pd 3.7063 1.2038 -5.6876 0
M  V30 32 Pb 4.0413 0.4487 -5.1277 0
M  V30 33 Pb 4.3354 1.7992 -5.1911 0
M  V30 34 Pb 3.0102 0.6316 -6.1305 0
M  V30 35 Pb 3.3718 1.9818 -6.2099 0
M  V30 36 Pd -1.9710 -6.2069 0.7498 0
M  V30 37 Pb -2.4960 -5.8072 -0.0021 0
M  V30 38 Pb -1.3957 -6.5771 1.4769 0
M  V30 39 Pb -2.8166 -6.3727 1.2596 0
M  V30 40 Pb -1.1126 -5.9449 0.3172 0
M  V30 41 Pd 0.8960 -3.2424 6.1712 0
M  V30 42 Pb 0.1913 -3.8422 6.5407 0
M  V30 43 Pb 1.6122 -2.6447 5.8044 0
M  V30 44 Pb 1.3357 -4.0724 5.8451 0
M  V30 45 Pb 0.3048 -2.4609 6.3730 0
M  V30 46 Ag -4.6266 -2.2732 3.6074 0
M  V30 47 Fe -4.8609 -1.2171 1.4935 0
M  V30 48 Ag -5.1647 -0.1114 -0.5858 0
M  V30 49 Ag 4.6353 -1.5170 -0.1519 0
M  V30 50 Fe 4.4945 -0.8133 -2.4147 0
M  V30 51 Ag 4.3214 -0.0642 -4.6606 0
M  V30 52 Ag -4.5824 -1.5057 -2.5079 0
M  V30 53 Fe -3.7391 -3.5207 -1.5751 0
M  V30 54 Ag -2.8660 -5.4888 -0.5722 0
M  V30 55 Ag -2.8069 5.7412 -0.1339 0
M  V30 56 Fe -3.9935 3.8553 -0.9511 0
M  V30 57 Ag -5.0055 1.8820 -1.7966 0
M  V30 58 Ag -0.9014 5.9508 1.6901 0
M  V30 59 Fe 1.0976 5.0929 2.6000 0
M  V30 60 Ag 3.3153 4.2919 2.5826 0
M  V30 61 Ag -1.6677 3.9561 -5.7323 0
M  V30 62 Fe -1.5668 5.2717 -3.7595 0
M  V30 63 Ag -1.4066 6.4465 -1.7034 0
M  V30 64 Ag 3.1565 -2.7291 0.9202 0
M  V30 65 Fe 1.3453 -4.2117 0.5198 0
M  V30 66 Ag -0.4389 -5.7180 0.0879 0
M  V30 67 Ag -0.8737 -6.7719 1.9767 0
M  V30 68 Fe 0.4337 -5.9535 3.7767 0
M  V30 69 Ag 1.4603 -4.7355 5.5313 0
M  V30 70 Ag 5.0762 4.0697 -0.3966 0
M  V30 71 Fe 4.9954 3.1919 -2.6006 0
M  V30 72 Ag 4.7652 2.2353 -4.7608 0
M  V30 73 Ba -0.4033 0.9213 -6.8577 0
M  V30 74 Ga 1.0176 0.5478 -6.6717 0
M  V30 75 Ba 2.4497 0.2420 -6.4517 0
M  V30 76 Ba -3.0382 -2.0926 5.5526 0
M  V30 77 Ga -1.6405 -1.9675 6.0273 0
M  V30 78 Ba -0.2253 -1.9357 6.4634 0
M  V30 79 Ba -3.1339 -4.4535 5.8838 0
M  V30 80 Ga -1.7509 -4.4258 6.3757 0
M  V30 81 Ba -0.3462 -4.2993 6.7837 0
M  V30 82 Ba 0.2411 3.2302 -6.9135 0
M  V30 83 Ga 1.6728 2.9347 -6.7724 0
M  V30 84 Ba 3.0792 2.5590 -6.5784 0
M  V30 85 Ba 0.5854 6.6222 -0.0252 0
M  V30 86 Ga 1.9063 5.9989 0.2894 0
M  V30 87 Ba 3.2943 5.5129 0.5519 0
M  V30 88 Ba -4.5320 -4.7821 3.8577 0
M  V30 89 Ga -4.0127 -5.6240 2.7588 0
M  V30 90 Ba -3.4512 -6.4351 1.6574 0
M  V30 91 Ba 5.2229 -0.0960 1.9119 0
M  V30 92 Ga 5.2374 1.3790 1.8175 0
M  V30 93 Ba 5.2979 2.8541 1.7445 0
M  V30 94 Ba 3.7096 -1.3102 3.2180 0
M  V30 95 Ga 2.8870 -1.8003 4.3451 0
M  V30 96 Ba 2.1499 -2.1728 5.5722 0
M  V30 97 Ba -2.7303 1.6149 -6.0326 0
M  V30 98 Ga -3.5922 1.0887 -4.9510 0
M  V30 99 Ba -4.5519 0.5261 -3.9751 0
M  V30 END ATOM
M  V30 BEGIN BOND
M  V30 1 1 1 2
M  V30 2 1 1 3
M  V30 3 1 1 4
M  V30 4 1 1 5
M  V30 5 1 6 7
M  V30 6 1 6 8
M  V30 7 1 6 9
M  V30 8 1 6 10
M  V30 9 1 11 12
M  V30 10 1 11 13
M  V30 11 1 11 14
M  V30 12 1 11 15
M  V30 13 1 16 17
M  V30 14 1 16 18
M  V30 15 1 16 19
M  V30 16 1 16 20
M  V30 17 1 21 22
M  V30 18 1 21 23
M  V30 19 1 21 24
M  V30 20 1 21 25
M  V30 21 1 26 27
M  V30 22 1 26 28
M  V30 23 1 26 29
M  V30 24 1 26 30
M  V30 25 1 31 32
M  V30 26 1 31 33
M  V30 27 1 31 34
M  V30 28 1 31 35
M  V30 29 1 36 37
M  V30 30 1 36 38
M  V30 31 1 36 39
M  V30 32 1 36 40
M  V30 33 1 41 42
M  V30 34 1 41 43
M  V30 35 1 41 44
M  V30 36 1 41 45
M  V30 37 1 46 47
M  V30 38 1 47 48
M  V30 39 1 49 50
M  V30 40 1 50 51
M  V30 41 1 52 53
M  V30 42 1 53 54
M  V30 43 1 55 56
M  V30 44 1 56 57
M  V30 45 1 58 59
M  V30 46 1 59 60
M  V30 47 1 61 62
M  V30 48 1 62 63
M  V30 49 1 64 65
M  V30 50 1 65 66
M  V30 51 1 67 68
M  V30 52 1 68 69
M  V30 53 1 70 71
M  V30 54 1 71 72
M  V30 55 1 73 74
M  V30 56 1 74 75
M  V30 57 1 76 77
M  V30 58 1 77 78
M  V30 59 1 79 80
M  V30 60 1 80 81
M  V30 61 1 82 83
M  V30 62 1 83 84
M  V30 63 1 85 86
M  V30 64 1 86 87
M  V30 65 1 88 89
M  V30 66 1 89 90
M  V30 67 1 91 92
M  V30 68 1 92 93
M  V30 69 1 94 95
M  V30 70 1 95 96
M  V30 71 1 97 98
M  V30 72 1 98 99
M  V30 73 1 2 49
M  V30 74 1 3 94
M  V30 75 1 4 91
M  V30 76 1 5 64
M  V30 77 1 7 46
M  V30 78 1 8 79
M  V30 79 1 9 88
M  V30 80 1 10 76
M  V30 81 1 12 82
M  V30 82 1 13 97
M  V30 83 1 14 61
M  V30 84 1 15 73
M  V30 85 1 17 63
M  V30 86 1 18 58
M  V30 87 1 19 55
M  V30 88 1 20 85
M  V30 89 1 22 48
M  V30 90 1 23 99
M  V30 91 1 24 57
M  V30 92 1 25 52
M  V30 93 1 27 60
M  V30 94 1 28 70
M  V30 95 1 29 93
M  V30 96 1 30 87
M  V30 97 1 32 51
M  V30 98 1 33 72
M  V30 99 1 34 75
M  V30 100 1 35 84
M  V30 101 1 37 54
M  V30 102 1 38 67
M  V30 103 1 39 90
M  V30 104 1 40 66
M  V30 105 1 42 81
M  V30 106 1 43 96
M  V30 107 1 44 69
M  V30 108 1 45 78
M  V30 END BOND
M  V30 END CTAB
M  END

$$$$
