
     RDKit          3D

  0  0  0  0  0  0  0  0  0  0999 V3000
M  V30 BEGIN CTAB
M  V30 COUNTS 99 108 0 0 0
M  V30 BEGIN ATOM
M  V30 1 Pd 0.6046 -2.1187 2.8937 0
M  V30 2 Pb 1.2158 -1.7514 3.5962 0
M  V30 3 Pb 0.0117 -1.3460 3.1186 0
M  V30 4 Pb 1.2209 -2.8883 2.7134 0
M  V30 5 Pb 0.0124 -2.4737 2.1635 0
M  V30 6 Pd -8.4441 0.8981 0.1499 0
M  V30 7 Pb -7.9756 1.3048 -0.6362 0
M  V30 8 Pb -8.8967 0.5284 0.9586 0
M  V30 9 Pb -8.4279 -0.0230 -0.2413 0
M  V30 10 Pb -8.3612 1.7589 0.6542 0
M  V30 11 Pd 3.7887 4.1023 -1.5588 0
M  V30 12 Pb 3.3178 4.0749 -0.6730 0
M  V30 13 Pb 2.9448 4.3838 -2.0184 0
M  V30 14 Pb 4.2616 4.1133 -2.4430 0
M  V30 15 Pb 4.6356 3.8407 -1.0976 0
M  V30 16 Pd 5.1673 0.3806 -5.2616 0
M  V30 17 Pb 5.2752 1.3751 -5.2125 0
M  V30 18 Pb 5.0575 -0.6137 -5.2462 0
M  V30 19 Pb 4.2799 0.4821 -5.7101 0
M  V30 20 Pb 6.0446 0.2337 -4.8057 0
M  V30 21 Pd -2.5101 1.8109 -4.9602 0
M  V30 22 Pb -3.3596 2.1062 -4.5210 0
M  V30 23 Pb -2.0702 2.6884 -4.7770 0
M  V30 24 Pb -1.6823 1.5231 -5.4411 0
M  V30 25 Pb -2.8953 0.8939 -5.0286 0
M  V30 26 Pd 6.9878 -4.3338 -0.3453 0
M  V30 27 Pb 6.5616 -4.5471 -1.2232 0
M  V30 28 Pb 7.3432 -3.9872 0.5184 0
M  V30 29 Pb 6.2610 -4.8002 0.1566 0
M  V30 30 Pb 7.6092 -3.7332 -0.8453 0
M  V30 31 Pd 4.7467 1.4824 2.9942 0
M  V30 32 Pb 4.1682 1.0065 3.6597 0
M  V30 33 Pb 5.4682 0.8215 3.1921 0
M  V30 34 Pb 5.3381 1.9228 2.3193 0
M  V30 35 Pb 4.0175 2.1256 2.7517 0
M  V30 36 Pd -4.6383 -3.0685 0.1242 0
M  V30 37 Pb -4.5375 -2.9686 -0.8650 0
M  V30 38 Pb -4.7234 -3.1654 1.1185 0
M  V30 39 Pb -5.6263 -2.9477 -0.0174 0
M  V30 40 Pb -3.6459 -3.1948 0.2042 0
M  V30 41 Pd -5.6940 0.8392 6.0846 0
M  V30 42 Pb -6.6459 0.5509 6.1147 0
M  V30 43 Pb -4.7554 1.0869 5.8573 0
M  V30 44 Pb -5.4244 -0.1204 6.0973 0
M  V30 45 Pb -6.0108 1.7469 5.8138 0
M  V30 46 Ag -7.6249 1.6617 -1.1969 0
M  V30 47 Fe -5.8065 1.9555 -2.6983 0
M  V30 48 Ag -4.0212 2.3060 -4.2271 0
M  V30 49 Ag -3.1717 0.2021 -4.9729 0
M  V30 50 Fe -3.8499 -1.4117 -3.3714 0
M  V30 51 Ag -4.4708 -2.8687 -1.6046 0
M  V30 52 Ag 3.6098 0.5276 -6.0425 0
M  V30 53 Fe 1.2736 0.9344 -5.9206 0
M  V30 54 Ag -1.0645 1.3362 -5.8225 0
M  V30 55 Ag 5.0211 -1.3576 -5.1554 0
M  V30 56 Fe 5.5649 -3.0995 -3.6359 0
M  V30 57 Ag 6.2399 -4.5711 -1.8991 0
M  V30 58 Ag -8.2428 2.3171 1.1424 0
M  V30 59 Fe -7.3149 2.6012 3.3102 0
M  V30 60 Ag -6.2973 2.3283 5.4384 0
M  V30 61 Ag -9.1690 0.3087 1.6185 0
M  V30 62 Fe -8.5176 0.2076 3.8929 0
M  V30 63 Ag -7.3363 0.3362 5.9405 0
M  V30 64 Ag 6.6702 0.0263 -4.4487 0
M  V30 65 Fe 7.4942 -1.5331 -2.8601 0
M  V30 66 Ag 7.9630 -3.2115 -1.2487 0
M  V30 67 Ag 1.6748 -3.4710 2.5706 0
M  V30 68 Fe 3.6574 -4.3328 1.5843 0
M  V30 69 Ag 5.6730 -5.0479 0.5494 0
M  V30 70 Ag -4.7378 -3.2234 1.8688 0
M  V30 71 Fe -4.9763 -2.1490 3.9742 0
M  V30 72 Ag -5.2665 -0.8314 5.9291 0
M  V30 73 Ag -0.3547 -0.7464 3.3818 0
M  V30 74 Fe -2.1995 0.2665 4.4806 0
M  V30 75 Ag -4.0765 1.2229 5.5752 0
M  V30 76 Ag 7.5274 -3.6272 1.1452 0
M  V30 77 Fe 6.8836 -1.6941 2.3572 0
M  V30 78 Ag 5.9851 0.2905 3.2927 0
M  V30 79 Ag 2.3199 4.5969 -2.3770 0
M  V30 80 Fe 0.3051 4.0180 -3.4939 0
M  V30 81 Ag -1.6771 3.2960 -4.5850 0
M  V30 82 Ba 1.6405 -1.4286 4.1252 0
M  V30 83 Ga 2.7093 -0.4087 4.1356 0
M  V30 84 Ba 3.7787 0.6103 4.1668 0
M  V30 85 Ba 5.2626 3.6525 -0.7332 0
M  V30 86 Ga 5.5332 2.9476 0.5329 0
M  V30 87 Ba 5.7791 2.2399 1.8025 0
M  V30 88 Ba 2.9748 4.0466 -0.0026 0
M  V30 89 Ga 3.2226 3.3324 1.2689 0
M  V30 90 Ba 3.4854 2.6102 2.5328 0
M  V30 91 Ba 4.6094 4.1248 -3.1106 0
M  V30 92 Ga 4.9805 3.1211 -4.1302 0
M  V30 93 Ba 5.3534 2.1202 -5.1520 0
M  V30 94 Ba -8.4000 -0.7474 -0.4406 0
M  V30 95 Ga -7.3658 -1.8009 -0.3281 0
M  V30 96 Ba -6.3499 -2.8729 -0.2226 0
M  V30 97 Ba -0.3440 -2.7950 1.5809 0
M  V30 98 Ga -1.6701 -3.0028 0.9582 0
M  V30 99 Ba -2.9019 -3.3131 0.1989 0
M  V30 END ATOM
M  V30 BEGIN BOND
M  V30 1 1 1 2
M  V30 2 1 1 3
M  V30 3 1 1 4
M  V30 4 1 1 5
M  V30 5 1 6 7
M  V30 6 1 6 8
M  V30 7 1 6 9
M  V30 8 1 6 10
M  V30 9 1 11 12
M  V30 10 1 11 13
M  V30 11 1 11 14
M  V30 12 1 11 15
M  V30 13 1 16 17
M  V30 14 1 16 18
M  V30 15 1 16 19
M  V30 16 1 16 20
M  V30 17 1 21 22
M  V30 18 1 21 23
M  V30 19 1 21 24
M  V30 20 1 21 25
M  V30 21 1 26 27
M  V30 22 1 26 28
M  V30 23 1 26 29
M  V30 24 1 26 30
M  V30 25 1 31 32
M  V30 26 1 31 33
M  V30 27 1 31 34
M  V30 28 1 31 35
M  V30 29 1 36 37
M  V30 30 1 36 38
M  V30 31 1 36 39
M  V30 32 1 36 40
M  V30 33 1 41 42
M  V30 34 1 41 43
M  V30 35 1 41 44
M  V30 36 1 41 45
M  V30 37 1 46 47
M  V30 38 1 47 48
M  V30 39 1 49 50
M  V30 40 1 50 51
M  V30 41 1 52 53
M  V30 42 1 53 54
M  V30 43 1 55 56
M  V30 44 1 56 57
M  V30 45 1 58 59
M  V30 46 1 59 60
M  V30 47 1 61 62
M  V30 48 1 62 63
M  V30 49 1 64 65
M  V30 50 1 65 66
M  V30 51 1 67 68
M  V30 52 1 68 69
M  V30 53 1 70 71
M  V30 54 1 71 72
M  V30 55 1 73 74
M  V30 56 1 74 75
M  V30 57 1 76 77
M  V30 58 1 77 78
M  V30 59 1 79 80
M  V30 60 1 80 81
M  V30 61 1 82 83
M  V30 62 1 83 84
M  V30 63 1 85 86
M  V30 64 1 86 87
M  V30 65 1 88 89
M  V30 66 1 89 90
M  V30 67 1 91 92
M  V30 68 1 92 93
M  V30 69 1 94 95
M  V30 70 1 95 96
M  V30 71 1 97 98
M  V30 72 1 98 99
M  V30 73 1 2 82
M  V30 74 1 3 73
M  V30 75 1 4 67
M  V30 76 1 5 97
M  V30 77 1 7 46
M  V30 78 1 8 61
M  V30 79 1 9 94
M  V30 80 1 10 58
M  V30 81 1 12 88
M  V30 82 1 13 79
M  V30 83 1 14 91
M  V30 84 1 15 85
M  V30 85 1 17 93
M  V30 86 1 18 55
M  V30 87 1 19 52
M  V30 88 1 20 64
M  V30 89 1 22 48
M  V30 90 1 23 81
M  V30 91 1 24 54
M  V30 92 1 25 49
M  V30 93 1 27 57
M  V30 94 1 28 76
M  V30 95 1 29 69
M  V30 96 1 30 66
M  V30 97 1 32 84
M  V30 98 1 33 78
M  V30 99 1 34 87
M  V30 100 1 35 90
M  V30 101 1 37 51
M  V30 102 1 38 70
M  V30 103 1 39 96
M  V30 104 1 40 99
M  V30 105 1 42 63
M  V30 106 1 43 75
M  V30 107 1 44 72
M  V30 108 1 45 60
M  V30 END BOND
M  V30 END CTAB
M  END

$$$$
