
     RDKit          3D

  0  0  0  0  0  0  0  0  0  0999 V3000
M  V30 BEGIN CTAB
M  V30 COUNTS 99 108 0 0 0
M  V30 BEGIN ATOM
M  V30 1 Pd 3.8033 -1.4871 -3.5376 0
M  V30 2 Pb 4.2961 -1.5098 -2.6663 0
M  V30 3 Pb 3.6714 -2.4770 -3.4577 0
M  V30 4 Pb 4.0020 -0.5133 -3.6656 0
M  V30 5 Pb 3.2297 -1.4658 -4.3556 0
M  V30 6 Pd 1.6611 3.8195 -3.2383 0
M  V30 7 Pb 1.0312 3.0876 -3.4827 0
M  V30 8 Pb 0.8789 4.3488 -2.8777 0
M  V30 9 Pb 2.4604 3.2992 -3.5424 0
M  V30 10 Pb 2.2378 4.5531 -2.8885 0
M  V30 11 Pd -2.4530 4.3389 0.9581 0
M  V30 12 Pb -2.9415 3.9084 1.7160 0
M  V30 13 Pb -1.9849 4.7697 0.1725 0
M  V30 14 Pb -2.1608 5.0742 1.5729 0
M  V30 15 Pb -2.7015 3.5909 0.3473 0
M  V30 16 Pd 3.2913 0.3290 3.8483 0
M  V30 17 Pb 2.7702 0.9153 4.4754 0
M  V30 18 Pb 2.7970 -0.4798 4.1752 0
M  V30 19 Pb 3.8443 1.1191 3.5963 0
M  V30 20 Pb 3.8061 -0.2092 3.1788 0
M  V30 21 Pd -4.6454 -0.3868 1.3951 0
M  V30 22 Pb -4.6331 -1.1281 0.6824 0
M  V30 23 Pb -4.4279 -0.9865 2.1691 0
M  V30 24 Pb -4.6293 0.3634 2.0533 0
M  V30 25 Pb -4.8725 0.2739 0.6939 0
M  V30 26 Pd 2.1687 5.4146 3.4840 0
M  V30 27 Pb 3.0510 4.9570 3.4280 0
M  V30 28 Pb 1.9028 4.7839 4.2169 0
M  V30 29 Pb 1.2689 5.8548 3.4921 0
M  V30 30 Pb 2.4538 5.9615 2.6997 0
M  V30 31 Pd 0.2787 -5.8982 -2.0963 0
M  V30 32 Pb 0.5875 -5.8497 -1.1265 0
M  V30 33 Pb -0.1071 -5.8786 -3.0126 0
M  V30 34 Pb -0.6148 -6.2166 -1.8139 0
M  V30 35 Pb 1.1857 -5.6266 -2.4217 0
M  V30 36 Pd -3.1191 -2.2649 -4.1828 0
M  V30 37 Pb -2.7911 -3.2043 -4.2986 0
M  V30 38 Pb -3.4624 -1.3365 -4.1802 0
M  V30 39 Pb -2.5093 -2.0394 -4.9394 0
M  V30 40 Pb -3.6186 -2.4533 -3.3051 0
M  V30 41 Pd -0.9349 -3.8704 3.3531 0
M  V30 42 Pb -0.1793 -3.4195 3.8337 0
M  V30 43 Pb -1.6983 -4.3683 2.9684 0
M  V30 44 Pb -0.2817 -4.3919 2.7698 0
M  V30 45 Pb -1.6293 -3.3501 3.8407 0
M  V30 46 Ag 2.7305 -1.4437 -4.9134 0
M  V30 47 Fe 0.4086 -1.6360 -5.3614 0
M  V30 48 Ag -1.9490 -1.8948 -5.4124 0
M  V30 49 Ag 2.5697 5.1049 -2.5113 0
M  V30 50 Fe 2.7545 5.8648 -0.2734 0
M  V30 51 Ag 2.6975 6.2667 2.0623 0
M  V30 52 Ag 0.4565 2.6172 -3.4934 0
M  V30 53 Fe -1.3836 2.4917 -2.0174 0
M  V30 54 Ag -2.7541 3.0692 -0.1814 0
M  V30 55 Ag 4.6078 -1.5621 -1.9845 0
M  V30 56 Fe 4.4466 -1.0789 0.3372 0
M  V30 57 Ag 4.2058 -0.5520 2.6424 0
M  V30 58 Ag -1.2700 -6.3889 -1.5263 0
M  V30 59 Fe -2.2507 -5.8228 0.5282 0
M  V30 60 Ag -2.2126 -4.7656 2.6223 0
M  V30 61 Ag -4.9838 0.7122 0.1124 0
M  V30 62 Fe -4.5271 0.4692 -2.1790 0
M  V30 63 Ag -3.7498 -0.6652 -4.0833 0
M  V30 64 Ba 0.8323 -5.8177 -0.3985 0
M  V30 65 Ga 0.4607 -5.2719 0.9461 0
M  V30 66 Ba 0.2196 -4.7900 2.3438 0
M  V30 67 Ba 2.3841 1.3839 4.9232 0
M  V30 68 Ga 2.0470 2.8239 4.8508 0
M  V30 69 Ba 1.7333 4.2665 4.7373 0
M  V30 70 Ba 3.6401 -3.2267 -3.4137 0
M  V30 71 Ga 2.7111 -4.3084 -3.0294 0
M  V30 72 Ba 1.8760 -5.4735 -2.6749 0
M  V30 73 Ba 2.4748 -1.0809 4.4931 0
M  V30 74 Ga 1.4019 -2.0771 4.2919 0
M  V30 75 Ba 0.3816 -3.1457 4.2539 0
M  V30 76 Ba -3.3198 3.5827 2.2746 0
M  V30 77 Ga -3.9637 2.2671 2.4294 0
M  V30 78 Ba -4.5902 0.9379 2.5309 0
M  V30 79 Ba 4.2743 1.7119 3.4490 0
M  V30 80 Ga 4.0163 3.1573 3.3918 0
M  V30 81 Ba 3.6952 4.5905 3.3473 0
M  V30 82 Ba -0.5049 -5.8456 -3.6419 0
M  V30 83 Ga -1.5064 -4.8571 -4.0825 0
M  V30 84 Ba -2.5131 -3.8701 -4.5144 0
M  V30 85 Ba 0.3262 4.7968 -2.6085 0
M  V30 86 Ga -0.6594 4.8850 -1.4970 0
M  V30 87 Ba -1.6872 5.1027 -0.4431 0
M  V30 88 Ba -4.2800 -1.3190 2.8297 0
M  V30 89 Ga -3.2488 -2.1586 3.4704 0
M  V30 90 Ba -2.2287 -3.0045 4.1209 0
M  V30 91 Ba 4.1898 0.1996 -3.8142 0
M  V30 92 Ga 3.5971 1.5515 -3.7620 0
M  V30 93 Ba 3.0867 2.9374 -3.7445 0
M  V30 94 Ba -4.6658 -1.6915 0.1469 0
M  V30 95 Ga -4.2743 -2.0711 -1.2587 0
M  V30 96 Ba -3.9706 -2.6157 -2.6314 0
M  V30 97 Ba -1.9338 5.6105 2.0489 0
M  V30 98 Ga -0.6731 5.9006 2.7630 0
M  V30 99 Ba 0.5923 6.1821 3.4726 0
M  V30 END ATOM
M  V30 BEGIN BOND
M  V30 1 1 1 2
M  V30 2 1 1 3
M  V30 3 1 1 4
M  V30 4 1 1 5
M  V30 5 1 6 7
M  V30 6 1 6 8
M  V30 7 1 6 9
M  V30 8 1 6 10
M  V30 9 1 11 12
M  V30 10 1 11 13
M  V30 11 1 11 14
M  V30 12 1 11 15
M  V30 13 1 16 17
M  V30 14 1 16 18
M  V30 15 1 16 19
M  V30 16 1 16 20
M  V30 17 1 21 22
M  V30 18 1 21 23
M  V30 19 1 21 24
M  V30 20 1 21 25
M  V30 21 1 26 27
M  V30 22 1 26 28
M  V30 23 1 26 29
M  V30 24 1 26 30
M  V30 25 1 31 32
M  V30 26 1 31 33
M  V30 27 1 31 34
M  V30 28 1 31 35
M  V30 29 1 36 37
M  V30 30 1 36 38
M  V30 31 1 36 39
M  V30 32 1 36 40
M  V30 33 1 41 42
M  V30 34 1 41 43
M  V30 35 1 41 44
M  V30 36 1 41 45
M  V30 37 1 46 47
M  V30 38 1 47 48
M  V30 39 1 49 50
M  V30 40 1 50 51
M  V30 41 1 52 53
M  V30 42 1 53 54
M  V30 43 1 55 56
M  V30 44 1 56 57
M  V30 45 1 58 59
M  V30 46 1 59 60
M  V30 47 1 61 62
M  V30 48 1 62 63
M  V30 49 1 64 65
M  V30 50 1 65 66
M  V30 51 1 67 68
M  V30 52 1 68 69
M  V30 53 1 70 71
M  V30 54 1 71 72
M  V30 55 1 73 74
M  V30 56 1 74 75
M  V30 57 1 76 77
M  V30 58 1 77 78
M  V30 59 1 79 80
M  V30 60 1 80 81
M  V30 61 1 82 83
M  V30 62 1 83 84
M  V30 63 1 85 86
M  V30 64 1 86 87
M  V30 65 1 88 89
M  V30 66 1 89 90
M  V30 67 1 91 92
M  V30 68 1 92 93
M  V30 69 1 94 95
M  V30 70 1 95 96
M  V30 71 1 97 98
M  V30 72 1 98 99
M  V30 73 1 2 55
M  V30 74 1 3 70
M  V30 75 1 4 91
M  V30 76 1 5 46
M  V30 77 1 7 52
M  V30 78 1 8 85
M  V30 79 1 9 93
M  V30 80 1 10 49
M  V30 81 1 12 76
M  V30 82 1 13 87
M  V30 83 1 14 97
M  V30 84 1 15 54
M  V30 85 1 17 67
M  V30 86 1 18 73
M  V30 87 1 19 79
M  V30 88 1 20 57
M  V30 89 1 22 94
M  V30 90 1 23 88
M  V30 91 1 24 78
M  V30 92 1 25 61
M  V30 93 1 27 81
M  V30 94 1 28 69
M  V30 95 1 29 99
M  V30 96 1 30 51
M  V30 97 1 32 64
M  V30 98 1 33 82
M  V30 99 1 34 58
M  V30 100 1 35 72
M  V30 101 1 37 84
M  V30 102 1 38 63
M  V30 103 1 39 48
M  V30 104 1 40 96
M  V30 105 1 42 75
M  V30 106 1 43 60
M  V30 107 1 44 66
M  V30 108 1 45 90
M  V30 END BOND
M  V30 END CTAB
M  END

$$$$
