
     RDKit          3D

  0  0  0  0  0  0  0  0  0  0999 V3000
M  V30 BEGIN CTAB
M  V30 COUNTS 99 108 0 0 0
M  V30 BEGIN ATOM
M  V30 1 Pd -3.6235 0.0269 1.2962 0
M  V30 2 Pb -4.3496 -0.4448 0.7960 0
M  V30 3 Pb -2.9766 -0.6785 1.0101 0
M  V30 4 Pb -4.2551 0.7479 1.5795 0
M  V30 5 Pb -2.8715 0.5148 1.7378 0
M  V30 6 Pd 5.3003 -7.3132 3.3372 0
M  V30 7 Pb 5.8011 -6.8203 2.6278 0
M  V30 8 Pb 4.6868 -7.7009 2.6513 0
M  V30 9 Pb 5.7255 -6.7453 4.0365 0
M  V30 10 Pb 4.6791 -7.6574 4.0355 0
M  V30 11 Pd -0.1874 -0.1364 -6.0121 0
M  V30 12 Pb -0.9626 -0.7622 -5.7924 0
M  V30 13 Pb 0.4268 -0.5994 -5.3714 0
M  V30 14 Pb 0.4725 0.6023 -6.1188 0
M  V30 15 Pb -0.7419 0.3088 -6.7034 0
M  V30 16 Pd 1.1574 6.1238 -2.1520 0
M  V30 17 Pb 1.2711 5.6143 -3.0051 0
M  V30 18 Pb 1.1081 6.6517 -1.3125 0
M  V30 19 Pb 1.9996 5.6907 -1.8317 0
M  V30 20 Pb 0.2497 6.5032 -2.4279 0
M  V30 21 Pd 5.0260 -0.4449 -0.0567 0
M  V30 22 Pb 5.3713 -1.3759 0.0862 0
M  V30 23 Pb 4.5397 -0.7668 -0.8709 0
M  V30 24 Pb 4.7968 0.5133 -0.2412 0
M  V30 25 Pb 5.4295 -0.1462 0.8081 0
M  V30 26 Pd -4.4865 6.7091 -0.5973 0
M  V30 27 Pb -3.9558 7.2363 0.0557 0
M  V30 28 Pb -5.0553 6.1578 -1.2084 0
M  V30 29 Pb -5.0223 6.3091 0.1410 0
M  V30 30 Pb -3.8232 6.9647 -1.3282 0
M  V30 31 Pd -5.5971 0.0301 -3.9457 0
M  V30 32 Pb -5.6837 -0.4257 -3.0558 0
M  V30 33 Pb -6.1516 0.8013 -3.6399 0
M  V30 34 Pb -5.5957 0.4596 -4.8395 0
M  V30 35 Pb -4.8975 -0.6382 -4.2702 0
M  V30 36 Pd 3.0137 -0.7072 4.8405 0
M  V30 37 Pb 3.8423 -0.2934 4.4566 0
M  V30 38 Pb 2.1651 -1.1128 5.1952 0
M  V30 39 Pb 3.6021 -1.4192 5.2278 0
M  V30 40 Pb 2.4301 0.0006 4.4475 0
M  V30 41 Pd -0.6099 -4.4589 3.2723 0
M  V30 42 Pb -0.4049 -5.1944 2.6248 0
M  V30 43 Pb -0.8245 -3.8528 2.5046 0
M  V30 44 Pb -0.6586 -3.7244 3.9516 0
M  V30 45 Pb -0.3431 -5.0923 3.9958 0
M  V30 46 Ag 6.0986 -6.3712 2.1073 0
M  V30 47 Fe 5.9134 -4.2193 1.1150 0
M  V30 48 Ag 5.6860 -2.0571 0.1545 0
M  V30 49 Ag 2.6081 5.3282 -1.5858 0
M  V30 50 Fe 3.6237 3.2654 -0.9839 0
M  V30 51 Ag 4.7231 1.2529 -0.3602 0
M  V30 52 Ag 0.9484 7.0448 -0.7071 0
M  V30 53 Fe -1.1033 7.6021 0.3000 0
M  V30 54 Ag -3.4486 7.5701 0.4767 0
M  V30 55 Ag -1.2449 0.6245 -7.1409 0
M  V30 56 Fe -3.5449 0.9594 -6.8082 0
M  V30 57 Ag -5.4888 0.7559 -5.5067 0
M  V30 58 Ag 4.1113 -7.7708 4.5042 0
M  V30 59 Fe 1.9435 -6.8429 4.7270 0
M  V30 60 Ag -0.0558 -5.6000 4.4625 0
M  V30 61 Ag 4.1002 -7.8498 2.2104 0
M  V30 62 Fe 1.9063 -6.9665 1.9993 0
M  V30 63 Ag -0.1228 -5.7498 2.2055 0
M  V30 64 Ag 0.8729 1.2325 -6.1345 0
M  V30 65 Fe 1.2122 3.2498 -4.9306 0
M  V30 66 Ag 1.4369 5.2154 -3.6189 0
M  V30 67 Ag 5.8839 -6.2229 4.5461 0
M  V30 68 Fe 5.0905 -4.0628 5.1299 0
M  V30 69 Ag 4.0927 -1.9349 5.4694 0
M  V30 70 Ag -4.6918 1.3251 1.7734 0
M  V30 71 Fe -5.1654 3.6102 1.3490 0
M  V30 72 Ag -5.3483 5.8677 0.6460 0
M  V30 73 Ag -2.2832 0.8722 2.0339 0
M  V30 74 Fe -0.1677 0.7461 3.1025 0
M  V30 75 Ag 1.9360 0.4895 4.1710 0
M  V30 76 Ag -5.5381 5.7081 -1.5677 0
M  V30 77 Fe -6.0628 3.5994 -2.5269 0
M  V30 78 Ag -6.4693 1.4571 -3.4682 0
M  V30 79 Ag 0.9316 -0.9478 -4.9375 0
M  V30 80 Fe 2.5294 -0.9572 -3.1781 0
M  V30 81 Ag 4.1450 -1.0625 -1.4382 0
M  V30 82 Ba -4.8716 -0.8076 0.3976 0
M  V30 83 Ga -5.3232 -0.7746 -1.0090 0
M  V30 84 Ba -5.8106 -0.7820 -2.4039 0
M  V30 85 Ba 5.6787 0.0899 1.4752 0
M  V30 86 Ga 5.0920 0.0466 2.8300 0
M  V30 87 Ba 4.4796 -0.0110 4.1730 0
M  V30 88 Ba -1.5606 -1.2135 -5.6113 0
M  V30 89 Ga -2.9551 -1.1125 -5.0644 0
M  V30 90 Ba -4.3566 -1.1242 -4.5264 0
M  V30 91 Ba -0.4287 6.8026 -2.6415 0
M  V30 92 Ga -1.8568 6.9347 -2.1996 0
M  V30 93 Ba -3.3075 7.1380 -1.8731 0
M  V30 94 Ba 1.4836 -1.3431 5.4267 0
M  V30 95 Ga 0.4362 -2.2808 4.9608 0
M  V30 96 Ba -0.6174 -3.2170 4.5058 0
M  V30 97 Ba -2.4796 -1.1900 0.7820 0
M  V30 98 Ga -1.7335 -2.3155 1.3765 0
M  V30 99 Ba -0.9432 -3.4560 1.8774 0
M  V30 END ATOM
M  V30 BEGIN BOND
M  V30 1 1 1 2
M  V30 2 1 1 3
M  V30 3 1 1 4
M  V30 4 1 1 5
M  V30 5 1 6 7
M  V30 6 1 6 8
M  V30 7 1 6 9
M  V30 8 1 6 10
M  V30 9 1 11 12
M  V30 10 1 11 13
M  V30 11 1 11 14
M  V30 12 1 11 15
M  V30 13 1 16 17
M  V30 14 1 16 18
M  V30 15 1 16 19
M  V30 16 1 16 20
M  V30 17 1 21 22
M  V30 18 1 21 23
M  V30 19 1 21 24
M  V30 20 1 21 25
M  V30 21 1 26 27
M  V30 22 1 26 28
M  V30 23 1 26 29
M  V30 24 1 26 30
M  V30 25 1 31 32
M  V30 26 1 31 33
M  V30 27 1 31 34
M  V30 28 1 31 35
M  V30 29 1 36 37
M  V30 30 1 36 38
M  V30 31 1 36 39
M  V30 32 1 36 40
M  V30 33 1 41 42
M  V30 34 1 41 43
M  V30 35 1 41 44
M  V30 36 1 41 45
M  V30 37 1 46 47
M  V30 38 1 47 48
M  V30 39 1 49 50
M  V30 40 1 50 51
M  V30 41 1 52 53
M  V30 42 1 53 54
M  V30 43 1 55 56
M  V30 44 1 56 57
M  V30 45 1 58 59
M  V30 46 1 59 60
M  V30 47 1 61 62
M  V30 48 1 62 63
M  V30 49 1 64 65
M  V30 50 1 65 66
M  V30 51 1 67 68
M  V30 52 1 68 69
M  V30 53 1 70 71
M  V30 54 1 71 72
M  V30 55 1 73 74
M  V30 56 1 74 75
M  V30 57 1 76 77
M  V30 58 1 77 78
M  V30 59 1 79 80
M  V30 60 1 80 81
M  V30 61 1 82 83
M  V30 62 1 83 84
M  V30 63 1 85 86
M  V30 64 1 86 87
M  V30 65 1 88 89
M  V30 66 1 89 90
M  V30 67 1 91 92
M  V30 68 1 92 93
M  V30 69 1 94 95
M  V30 70 1 95 96
M  V30 71 1 97 98
M  V30 72 1 98 99
M  V30 73 1 2 82
M  V30 74 1 3 97
M  V30 75 1 4 70
M  V30 76 1 5 73
M  V30 77 1 7 46
M  V30 78 1 8 61
M  V30 79 1 9 67
M  V30 80 1 10 58
M  V30 81 1 12 88
M  V30 82 1 13 79
M  V30 83 1 14 64
M  V30 84 1 15 55
M  V30 85 1 17 66
M  V30 86 1 18 52
M  V30 87 1 19 49
M  V30 88 1 20 91
M  V30 89 1 22 48
M  V30 90 1 23 81
M  V30 91 1 24 51
M  V30 92 1 25 85
M  V30 93 1 27 54
M  V30 94 1 28 76
M  V30 95 1 29 72
M  V30 96 1 30 93
M  V30 97 1 32 84
M  V30 98 1 33 78
M  V30 99 1 34 57
M  V30 100 1 35 90
M  V30 101 1 37 87
M  V30 102 1 38 94
M  V30 103 1 39 69
M  V30 104 1 40 75
M  V30 105 1 42 63
M  V30 106 1 43 99
M  V30 107 1 44 96
M  V30 108 1 45 60
M  V30 END BOND
M  V30 END CTAB
M  END

$$$$
