
     RDKit          3D

  0  0  0  0  0  0  0  0  0  0999 V3000
M  V30 BEGIN CTAB
M  V30 COUNTS 99 108 0 0 0
M  V30 BEGIN ATOM
M  V30 1 Pd -1.6419 3.6409 -2.2918 0
M  V30 2 Pb -0.8441 4.1747 -2.0067 0
M  V30 3 Pb -2.1587 4.1812 -1.6375 0
M  V30 4 Pb -1.1172 3.1215 -2.9711 0
M  V30 5 Pb -2.4765 3.1264 -2.4983 0
M  V30 6 Pd 0.8836 -2.9670 -5.7616 0
M  V30 7 Pb 0.9682 -3.9593 -5.8018 0
M  V30 8 Pb 0.1549 -3.0819 -5.0850 0
M  V30 9 Pb 0.8216 -1.9684 -5.6947 0
M  V30 10 Pb 1.7065 -2.9153 -6.3269 0
M  V30 11 Pd 2.1251 -5.1923 -1.8544 0
M  V30 12 Pb 2.2401 -4.6411 -1.0323 0
M  V30 13 Pb 1.1602 -4.9341 -1.9297 0
M  V30 14 Pb 3.1141 -5.3234 -1.8704 0
M  V30 15 Pb 2.0180 -5.7355 -2.6832 0
M  V30 16 Pd 3.4008 2.8877 -0.4818 0
M  V30 17 Pb 3.9858 2.0543 -0.6072 0
M  V30 18 Pb 3.3896 2.7947 0.5191 0
M  V30 19 Pb 3.4412 3.0747 -1.4510 0
M  V30 20 Pb 2.8093 3.6884 -0.4355 0
M  V30 21 Pd -0.8483 -2.9174 2.3601 0
M  V30 22 Pb -1.2252 -2.8407 1.4383 0
M  V30 23 Pb -0.4480 -2.9294 3.2732 0
M  V30 24 Pb 0.0760 -3.0213 2.0004 0
M  V30 25 Pb -1.7608 -2.7462 2.7340 0
M  V30 26 Pd 5.3244 -1.7554 -3.9423 0
M  V30 27 Pb 5.1858 -0.9293 -4.4670 0
M  V30 28 Pb 5.3608 -1.2171 -3.0695 0
M  V30 29 Pb 5.4852 -2.6156 -3.4506 0
M  V30 30 Pb 5.2001 -2.2316 -4.8127 0
M  V30 31 Pd -4.7982 3.8170 4.6165 0
M  V30 32 Pb -5.0370 3.3024 5.4332 0
M  V30 33 Pb -5.5438 3.4045 4.0901 0
M  V30 34 Pb -3.9696 4.1718 5.0892 0
M  V30 35 Pb -4.5776 4.3563 3.8120 0
M  V30 36 Pd -4.7442 0.1659 0.5722 0
M  V30 37 Pb -5.4084 0.7660 1.0310 0
M  V30 38 Pb -4.6634 -0.3776 1.4095 0
M  V30 39 Pb -4.8134 0.6738 -0.2912 0
M  V30 40 Pb -4.1144 -0.4670 0.1201 0
M  V30 41 Pd 0.3043 2.2624 6.8500 0
M  V30 42 Pb 1.0023 2.4661 6.1560 0
M  V30 43 Pb -0.2238 3.1065 6.6560 0
M  V30 44 Pb -0.3856 2.0125 7.5211 0
M  V30 45 Pb 0.6984 1.3550 6.9583 0
M  V30 46 Ag -5.0540 2.9370 6.0767 0
M  V30 47 Fe -3.2727 2.1744 7.4140 0
M  V30 48 Ag -0.9943 1.8468 7.9092 0
M  V30 49 Ag -2.5204 4.5923 -1.1345 0
M  V30 50 Fe -3.4909 4.7229 1.0205 0
M  V30 51 Ag -4.4313 4.7403 3.1926 0
M  V30 52 Ag 3.4091 2.7973 1.2743 0
M  V30 53 Fe 2.4222 2.6675 3.4372 0
M  V30 54 Ag 1.5583 2.5574 5.6531 0
M  V30 55 Ag 3.5146 3.1562 -2.1783 0
M  V30 56 Fe 4.2422 1.7448 -3.9058 0
M  V30 57 Ag 5.0368 -0.2817 -4.7812 0
M  V30 58 Ag -0.1057 -2.8584 3.9331 0
M  V30 59 Fe 0.4961 -1.2549 5.5701 0
M  V30 60 Ag 0.8801 0.6328 6.9487 0
M  V30 61 Ag -0.7287 2.7508 -3.4993 0
M  V30 62 Fe 0.0139 0.7490 -4.5472 0
M  V30 63 Ag 0.7879 -1.2187 -5.6363 0
M  V30 64 Ba 4.4460 1.4347 -0.6801 0
M  V30 65 Ga 4.8636 0.3278 -1.6101 0
M  V30 66 Ba 5.4032 -0.8377 -2.3945 0
M  V30 67 Ba 2.3607 -4.2312 -0.4202 0
M  V30 68 Ga 1.5472 -3.6594 0.6638 0
M  V30 69 Ba 0.7868 -3.0637 1.7732 0
M  V30 70 Ba -3.1325 2.7740 -2.6060 0
M  V30 71 Ga -3.9843 1.8888 -1.7812 0
M  V30 72 Ba -4.8480 1.0040 -0.9684 0
M  V30 73 Ba 2.3717 -2.9534 -6.6720 0
M  V30 74 Ga 3.7314 -2.7412 -6.1380 0
M  V30 75 Ba 5.0380 -2.4972 -5.4958 0
M  V30 76 Ba -6.0622 3.0957 3.6411 0
M  V30 77 Ga -5.9909 2.1352 2.5164 0
M  V30 78 Ba -5.9325 1.1767 1.3891 0
M  V30 79 Ba -0.3167 -3.2350 -4.5203 0
M  V30 80 Ga -0.0120 -3.9535 -3.2651 0
M  V30 81 Ba 0.4649 -4.6857 -2.0729 0
M  V30 82 Ba 1.0671 -4.6981 -5.7697 0
M  V30 83 Ga 1.4839 -5.4852 -4.6030 0
M  V30 84 Ba 1.9034 -6.0866 -3.3315 0
M  V30 85 Ba -0.3084 4.6123 -1.7113 0
M  V30 86 Ga 1.0259 4.4487 -1.1044 0
M  V30 87 Ba 2.3621 4.2831 -0.5025 0
M  V30 88 Ba -3.3374 4.4597 5.4157 0
M  V30 89 Ga -2.0094 4.0367 5.9586 0
M  V30 90 Ba -0.6612 3.7203 6.5240 0
M  V30 91 Ba -2.4427 -2.5806 3.0014 0
M  V30 92 Ga -3.5282 -1.6994 2.5260 0
M  V30 93 Ba -4.5925 -0.8091 2.0206 0
M  V30 94 Ba -1.5164 -2.7402 0.7558 0
M  V30 95 Ga -2.5845 -1.8571 0.2516 0
M  V30 96 Ba -3.6578 -0.9598 -0.2149 0
M  V30 97 Ba 3.8611 -5.3283 -1.9127 0
M  V30 98 Ga 4.7670 -4.3191 -2.4969 0
M  V30 99 Ba 5.6140 -3.2696 -3.0987 0
M  V30 END ATOM
M  V30 BEGIN BOND
M  V30 1 1 1 2
M  V30 2 1 1 3
M  V30 3 1 1 4
M  V30 4 1 1 5
M  V30 5 1 6 7
M  V30 6 1 6 8
M  V30 7 1 6 9
M  V30 8 1 6 10
M  V30 9 1 11 12
M  V30 10 1 11 13
M  V30 11 1 11 14
M  V30 12 1 11 15
M  V30 13 1 16 17
M  V30 14 1 16 18
M  V30 15 1 16 19
M  V30 16 1 16 20
M  V30 17 1 21 22
M  V30 18 1 21 23
M  V30 19 1 21 24
M  V30 20 1 21 25
M  V30 21 1 26 27
M  V30 22 1 26 28
M  V30 23 1 26 29
M  V30 24 1 26 30
M  V30 25 1 31 32
M  V30 26 1 31 33
M  V30 27 1 31 34
M  V30 28 1 31 35
M  V30 29 1 36 37
M  V30 30 1 36 38
M  V30 31 1 36 39
M  V30 32 1 36 40
M  V30 33 1 41 42
M  V30 34 1 41 43
M  V30 35 1 41 44
M  V30 36 1 41 45
M  V30 37 1 46 47
M  V30 38 1 47 48
M  V30 39 1 49 50
M  V30 40 1 50 51
M  V30 41 1 52 53
M  V30 42 1 53 54
M  V30 43 1 55 56
M  V30 44 1 56 57
M  V30 45 1 58 59
M  V30 46 1 59 60
M  V30 47 1 61 62
M  V30 48 1 62 63
M  V30 49 1 64 65
M  V30 50 1 65 66
M  V30 51 1 67 68
M  V30 52 1 68 69
M  V30 53 1 70 71
M  V30 54 1 71 72
M  V30 55 1 73 74
M  V30 56 1 74 75
M  V30 57 1 76 77
M  V30 58 1 77 78
M  V30 59 1 79 80
M  V30 60 1 80 81
M  V30 61 1 82 83
M  V30 62 1 83 84
M  V30 63 1 85 86
M  V30 64 1 86 87
M  V30 65 1 88 89
M  V30 66 1 89 90
M  V30 67 1 91 92
M  V30 68 1 92 93
M  V30 69 1 94 95
M  V30 70 1 95 96
M  V30 71 1 97 98
M  V30 72 1 98 99
M  V30 73 1 2 85
M  V30 74 1 3 49
M  V30 75 1 4 61
M  V30 76 1 5 70
M  V30 77 1 7 82
M  V30 78 1 8 79
M  V30 79 1 9 63
M  V30 80 1 10 73
M  V30 81 1 12 67
M  V30 82 1 13 81
M  V30 83 1 14 97
M  V30 84 1 15 84
M  V30 85 1 17 64
M  V30 86 1 18 52
M  V30 87 1 19 55
M  V30 88 1 20 87
M  V30 89 1 22 94
M  V30 90 1 23 58
M  V30 91 1 24 69
M  V30 92 1 25 91
M  V30 93 1 27 57
M  V30 94 1 28 66
M  V30 95 1 29 99
M  V30 96 1 30 75
M  V30 97 1 32 46
M  V30 98 1 33 76
M  V30 99 1 34 88
M  V30 100 1 35 51
M  V30 101 1 37 78
M  V30 102 1 38 93
M  V30 103 1 39 72
M  V30 104 1 40 96
M  V30 105 1 42 54
M  V30 106 1 43 90
M  V30 107 1 44 48
M  V30 108 1 45 60
M  V30 END BOND
M  V30 END CTAB
M  END

$$$$
