
     RDKit          3D

  0  0  0  0  0  0  0  0  0  0999 V3000
M  V30 BEGIN CTAB
M  V30 COUNTS 99 108 0 0 0
M  V30 BEGIN ATOM
M  V30 1 Pd -2.7617 -3.2559 1.7289 0
M  V30 2 Pb -3.5173 -2.9527 1.1413 0
M  V30 3 Pb -2.5577 -4.0028 1.0969 0
M  V30 4 Pb -2.9781 -2.5784 2.4331 0
M  V30 5 Pb -1.9680 -3.5517 2.2589 0
M  V30 6 Pd -1.2265 2.8033 6.5572 0
M  V30 7 Pb -0.7654 3.6624 6.7635 0
M  V30 8 Pb -0.3616 2.4518 6.2003 0
M  V30 9 Pb -1.7272 1.9872 6.2661 0
M  V30 10 Pb -2.0934 3.2573 6.7380 0
M  V30 11 Pd 0.6537 5.3091 2.9131 0
M  V30 12 Pb 0.7407 4.9520 1.9835 0
M  V30 13 Pb 1.0990 4.4911 3.2893 0
M  V30 14 Pb 0.1375 6.0927 2.5596 0
M  V30 15 Pb 0.6029 5.6695 3.8433 0
M  V30 16 Pd -4.3270 1.1195 -1.5494 0
M  V30 17 Pb -4.9087 1.4438 -0.8040 0
M  V30 18 Pb -3.7907 0.8414 -2.3493 0
M  V30 19 Pb -4.1004 2.0697 -1.7710 0
M  V30 20 Pb -4.5751 0.1746 -1.3144 0
M  V30 21 Pd 4.2452 0.5586 -2.0192 0
M  V30 22 Pb 4.3201 0.4380 -1.0309 0
M  V30 23 Pb 4.1623 0.6721 -3.0086 0
M  V30 24 Pb 3.5714 1.2834 -1.8791 0
M  V30 25 Pb 4.8986 -0.1904 -2.1418 0
M  V30 26 Pd -4.3477 5.6235 1.2535 0
M  V30 27 Pb -4.1175 5.4697 0.2931 0
M  V30 28 Pb -4.9962 4.8643 1.2117 0
M  V30 29 Pb -3.6417 6.3323 1.3216 0
M  V30 30 Pb -4.5673 5.7214 2.2221 0
M  V30 31 Pd 1.8713 -6.3701 -3.4614 0
M  V30 32 Pb 2.5806 -6.0150 -4.0725 0
M  V30 33 Pb 2.5523 -6.6187 -2.7710 0
M  V30 34 Pb 1.1868 -6.1303 -4.1446 0
M  V30 35 Pb 1.1240 -6.6184 -2.8494 0
M  V30 36 Pd 4.5173 -3.8479 0.6117 0
M  V30 37 Pb 4.4956 -4.7770 0.2410 0
M  V30 38 Pb 5.1280 -3.5565 -0.1255 0
M  V30 39 Pb 3.8570 -4.0956 1.3199 0
M  V30 40 Pb 4.5321 -2.9158 0.9693 0
M  V30 41 Pd 1.4714 -1.9839 -5.9474 0
M  V30 42 Pb 0.6704 -1.3918 -5.8559 0
M  V30 43 Pb 0.8605 -2.7668 -6.0260 0
M  V30 44 Pb 2.2520 -2.6129 -5.9824 0
M  V30 45 Pb 2.0889 -1.1992 -5.8914 0
M  V30 46 Ag -2.3792 -4.6035 0.6852 0
M  V30 47 Fe -0.9510 -5.7010 -0.8606 0
M  V30 48 Ag 0.5241 -6.7211 -2.4153 0
M  V30 49 Ag -3.4139 0.7183 -2.9892 0
M  V30 50 Fe -1.6632 -0.1551 -4.3388 0
M  V30 51 Ag 0.0446 -0.9872 -5.7675 0
M  V30 52 Ag 0.8235 4.6953 1.2841 0
M  V30 53 Fe 1.9305 3.2597 -0.2494 0
M  V30 54 Ag 3.0547 1.8131 -1.7600 0
M  V30 55 Ag -1.3374 -3.7847 2.5894 0
M  V30 56 Fe 1.0048 -4.0520 2.3087 0
M  V30 57 Ag 3.3228 -4.2311 1.8277 0
M  V30 58 Ag -2.7142 3.6666 6.7058 0
M  V30 59 Fe -3.8938 4.7859 4.9833 0
M  V30 60 Ag -4.7035 5.7092 2.9570 0
M  V30 61 Ag -3.1334 -2.1282 3.0141 0
M  V30 62 Fe -2.6072 -0.3465 4.4956 0
M  V30 63 Ag -2.1533 1.4209 6.0177 0
M  V30 64 Ba 3.0677 -5.6867 -4.5414 0
M  V30 65 Ga 2.9811 -4.4077 -5.2785 0
M  V30 66 Ba 2.8122 -3.1161 -5.9785 0
M  V30 67 Ba -5.3664 1.7163 -0.2763 0
M  V30 68 Ga -5.4217 2.9863 0.4709 0
M  V30 69 Ba -5.4482 4.2665 1.2018 0
M  V30 70 Ba -3.9359 2.7835 -1.9394 0
M  V30 71 Ga -3.9367 4.0567 -1.1929 0
M  V30 72 Ba -3.9474 5.3141 -0.4202 0
M  V30 73 Ba 3.0587 -6.8160 -2.2526 0
M  V30 74 Ga 3.7669 -6.1374 -1.1494 0
M  V30 75 Ba 4.4820 -5.4715 -0.0431 0
M  V30 76 Ba 0.2810 2.2901 5.8482 0
M  V30 77 Ga 0.8919 3.0348 4.7257 0
M  V30 78 Ba 1.3868 3.8722 3.6111 0
M  V30 79 Ba 4.0892 0.7598 -3.7492 0
M  V30 80 Ga 3.3235 0.0710 -4.8045 0
M  V30 81 Ba 2.5591 -0.6154 -5.8625 0
M  V30 82 Ba -0.4419 4.3317 6.8294 0
M  V30 83 Ga 0.0938 5.1719 5.7479 0
M  V30 84 Ba 0.5845 5.8864 4.5596 0
M  V30 85 Ba -4.0676 -2.7583 0.6637 0
M  V30 86 Ga -4.4071 -1.6157 -0.2151 0
M  V30 87 Ba -4.8128 -0.5144 -1.1181 0
M  V30 88 Ba 0.6782 -5.9253 -4.6506 0
M  V30 89 Ga 0.5066 -4.6671 -5.3885 0
M  V30 90 Ba 0.4252 -3.3706 -6.0737 0
M  V30 91 Ba 5.3753 -0.7683 -2.2009 0
M  V30 92 Ga 5.4942 -2.0425 -1.4640 0
M  V30 93 Ba 5.5539 -3.2963 -0.6863 0
M  V30 94 Ba 4.3783 0.3173 -0.2947 0
M  V30 95 Ga 4.4610 -0.9238 0.4930 0
M  V30 96 Ba 4.5391 -2.2073 1.2102 0
M  V30 97 Ba -0.2805 6.6606 2.2957 0
M  V30 98 Ga -1.6820 6.7667 1.8345 0
M  V30 99 Ba -3.0877 6.8389 1.3797 0
M  V30 END ATOM
M  V30 BEGIN BOND
M  V30 1 1 1 2
M  V30 2 1 1 3
M  V30 3 1 1 4
M  V30 4 1 1 5
M  V30 5 1 6 7
M  V30 6 1 6 8
M  V30 7 1 6 9
M  V30 8 1 6 10
M  V30 9 1 11 12
M  V30 10 1 11 13
M  V30 11 1 11 14
M  V30 12 1 11 15
M  V30 13 1 16 17
M  V30 14 1 16 18
M  V30 15 1 16 19
M  V30 16 1 16 20
M  V30 17 1 21 22
M  V30 18 1 21 23
M  V30 19 1 21 24
M  V30 20 1 21 25
M  V30 21 1 26 27
M  V30 22 1 26 28
M  V30 23 1 26 29
M  V30 24 1 26 30
M  V30 25 1 31 32
M  V30 26 1 31 33
M  V30 27 1 31 34
M  V30 28 1 31 35
M  V30 29 1 36 37
M  V30 30 1 36 38
M  V30 31 1 36 39
M  V30 32 1 36 40
M  V30 33 1 41 42
M  V30 34 1 41 43
M  V30 35 1 41 44
M  V30 36 1 41 45
M  V30 37 1 46 47
M  V30 38 1 47 48
M  V30 39 1 49 50
M  V30 40 1 50 51
M  V30 41 1 52 53
M  V30 42 1 53 54
M  V30 43 1 55 56
M  V30 44 1 56 57
M  V30 45 1 58 59
M  V30 46 1 59 60
M  V30 47 1 61 62
M  V30 48 1 62 63
M  V30 49 1 64 65
M  V30 50 1 65 66
M  V30 51 1 67 68
M  V30 52 1 68 69
M  V30 53 1 70 71
M  V30 54 1 71 72
M  V30 55 1 73 74
M  V30 56 1 74 75
M  V30 57 1 76 77
M  V30 58 1 77 78
M  V30 59 1 79 80
M  V30 60 1 80 81
M  V30 61 1 82 83
M  V30 62 1 83 84
M  V30 63 1 85 86
M  V30 64 1 86 87
M  V30 65 1 88 89
M  V30 66 1 89 90
M  V30 67 1 91 92
M  V30 68 1 92 93
M  V30 69 1 94 95
M  V30 70 1 95 96
M  V30 71 1 97 98
M  V30 72 1 98 99
M  V30 73 1 2 85
M  V30 74 1 3 46
M  V30 75 1 4 61
M  V30 76 1 5 55
M  V30 77 1 7 82
M  V30 78 1 8 76
M  V30 79 1 9 63
M  V30 80 1 10 58
M  V30 81 1 12 52
M  V30 82 1 13 78
M  V30 83 1 14 97
M  V30 84 1 15 84
M  V30 85 1 17 67
M  V30 86 1 18 49
M  V30 87 1 19 70
M  V30 88 1 20 87
M  V30 89 1 22 94
M  V30 90 1 23 79
M  V30 91 1 24 54
M  V30 92 1 25 91
M  V30 93 1 27 72
M  V30 94 1 28 69
M  V30 95 1 29 99
M  V30 96 1 30 60
M  V30 97 1 32 64
M  V30 98 1 33 73
M  V30 99 1 34 88
M  V30 100 1 35 48
M  V30 101 1 37 75
M  V30 102 1 38 93
M  V30 103 1 39 57
M  V30 104 1 40 96
M  V30 105 1 42 51
M  V30 106 1 43 90
M  V30 107 1 44 66
M  V30 108 1 45 81
M  V30 END BOND
M  V30 END CTAB
M  END

$$$$
