
     RDKit          3D

  0  0  0  0  0  0  0  0  0  0999 V3000
M  V30 BEGIN CTAB
M  V30 COUNTS 99 108 0 0 0
M  V30 BEGIN ATOM
M  V30 1 Pd -2.1237 1.1943 -3.6796 0
M  V30 2 Pb -2.2155 1.9565 -4.3230 0
M  V30 3 Pb -2.0204 0.4976 -2.9688 0
M  V30 4 Pb -3.0463 1.3396 -3.3257 0
M  V30 5 Pb -1.1931 1.0190 -4.0075 0
M  V30 6 Pd -1.3008 -7.3965 0.5498 0
M  V30 7 Pb -0.6038 -7.1199 1.2143 0
M  V30 8 Pb -2.0047 -7.6473 -0.1159 0
M  V30 9 Pb -0.5908 -7.7707 -0.0463 0
M  V30 10 Pb -2.0070 -6.9095 1.0641 0
M  V30 11 Pd 4.2646 4.9372 1.7311 0
M  V30 12 Pb 3.5707 5.6549 1.7302 0
M  V30 13 Pb 4.9182 4.1864 1.7144 0
M  V30 14 Pb 4.2988 4.8884 2.7310 0
M  V30 15 Pb 4.1881 4.9369 0.7320 0
M  V30 16 Pd 1.5177 1.9958 5.2342 0
M  V30 17 Pb 2.3365 2.5663 5.3253 0
M  V30 18 Pb 0.6633 1.4839 5.1240 0
M  V30 19 Pb 2.0426 1.1507 5.3806 0
M  V30 20 Pb 0.9636 2.8234 5.1504 0
M  V30 21 Pd 4.3298 -2.4805 2.8271 0
M  V30 22 Pb 3.7589 -3.2906 2.9756 0
M  V30 23 Pb 4.9039 -1.6817 2.6661 0
M  V30 24 Pb 4.0208 -2.0887 3.6982 0
M  V30 25 Pb 4.6617 -2.8489 1.9579 0
M  V30 26 Pd -4.8914 3.7876 2.3919 0
M  V30 27 Pb -4.5821 2.9667 2.8760 0
M  V30 28 Pb -5.0862 4.5911 1.8326 0
M  V30 29 Pb -5.3590 3.2547 1.6915 0
M  V30 30 Pb -4.2970 4.3109 2.9984 0
M  V30 31 Pd -1.0656 6.3054 -2.9558 0
M  V30 32 Pb -1.4056 5.8102 -3.7589 0
M  V30 33 Pb -1.9921 6.5541 -2.6788 0
M  V30 34 Pb -0.1230 6.0195 -3.1299 0
M  V30 35 Pb -0.7218 6.7482 -2.1280 0
M  V30 36 Pd 2.8691 -4.2483 -4.4039 0
M  V30 37 Pb 3.6575 -4.1711 -3.7966 0
M  V30 38 Pb 2.0100 -4.2963 -4.9078 0
M  V30 39 Pb 2.7691 -5.2018 -4.1189 0
M  V30 40 Pb 2.8801 -3.2692 -4.6048 0
M  V30 41 Pd -3.6827 -4.0813 -1.7959 0
M  V30 42 Pb -3.9875 -5.0149 -1.9692 0
M  V30 43 Pb -3.2515 -3.2033 -1.5833 0
M  V30 44 Pb -3.3717 -4.0156 -2.7416 0
M  V30 45 Pb -3.9045 -4.2184 -0.8294 0
M  V30 46 Ag -0.0824 -6.9064 1.7122 0
M  V30 47 Fe 1.6253 -5.3989 2.3926 0
M  V30 48 Ag 3.3355 -3.9017 3.0891 0
M  V30 49 Ag 4.9346 -3.0840 1.2991 0
M  V30 50 Fe 4.6166 -3.6163 -0.9932 0
M  V30 51 Ag 4.1899 -4.1273 -3.2725 0
M  V30 52 Ag -0.0221 1.1908 5.0214 0
M  V30 53 Fe -2.1864 1.6652 4.1579 0
M  V30 54 Ag -4.2505 2.3881 3.2241 0
M  V30 55 Ag 4.0588 4.9492 -0.0088 0
M  V30 56 Fe 2.4180 5.3520 -1.6806 0
M  V30 57 Ag 0.5986 5.8131 -3.1385 0
M  V30 58 Ag 3.0234 6.1555 1.6307 0
M  V30 59 Fe 1.2562 6.7090 0.1460 0
M  V30 60 Ag -0.4282 7.0248 -1.4963 0
M  V30 61 Ag 0.4915 3.4041 5.1088 0
M  V30 62 Fe -1.6189 4.1485 4.3187 0
M  V30 63 Ag -3.7585 4.6258 3.4102 0
M  V30 64 Ag -0.0598 -7.9606 -0.5405 0
M  V30 65 Fe 1.3553 -7.0572 -2.2202 0
M  V30 66 Ag 2.6438 -5.8843 -3.8340 0
M  V30 67 Ag -3.7110 1.4046 -2.9870 0
M  V30 68 Fe -4.8101 2.1062 -1.0052 0
M  V30 69 Ag -5.6094 2.9094 1.0786 0
M  V30 70 Ag -0.4944 0.8632 -4.2381 0
M  V30 71 Fe 1.2082 -0.7704 -4.5197 0
M  V30 72 Ag 2.7857 -2.5354 -4.7264 0
M  V30 73 Ag 1.3185 -4.2787 -5.1892 0
M  V30 74 Fe -0.9412 -4.1481 -4.4836 0
M  V30 75 Ag -3.0560 -4.0213 -3.4189 0
M  V30 76 Ag -5.1605 5.1358 1.3253 0
M  V30 77 Fe -4.0433 6.0524 -0.5564 0
M  V30 78 Ag -2.6538 6.7077 -2.3645 0
M  V30 79 Ag 5.3641 3.5897 1.7423 0
M  V30 80 Fe 5.4292 1.2504 2.1174 0
M  V30 81 Ag 5.3255 -1.0837 2.5166 0
M  V30 82 Ba -2.2673 2.5557 -4.7742 0
M  V30 83 Ga -1.9700 3.9908 -4.5793 0
M  V30 84 Ba -1.6621 5.4184 -4.3485 0
M  V30 85 Ba 2.4113 0.5141 5.5521 0
M  V30 86 Ga 3.1036 -0.6228 4.9035 0
M  V30 87 Ba 3.8167 -1.8039 4.3656 0
M  V30 88 Ba -2.5479 -6.4845 1.3640 0
M  V30 89 Ga -3.3279 -5.4201 0.7021 0
M  V30 90 Ba -4.0133 -4.3927 -0.1068 0
M  V30 91 Ba -2.5563 -7.7812 -0.6070 0
M  V30 92 Ga -3.3882 -6.8315 -1.3662 0
M  V30 93 Ba -4.1192 -5.7467 -2.0432 0
M  V30 94 Ba 4.3444 4.7890 3.4749 0
M  V30 95 Ga 3.6350 3.9209 4.4385 0
M  V30 96 Ba 2.9136 3.0452 5.3861 0
M  V30 97 Ba -1.9606 0.0349 -2.3806 0
M  V30 98 Ga -2.4410 -1.2889 -1.9376 0
M  V30 99 Ba -2.8601 -2.5929 -1.3871 0
M  V30 END ATOM
M  V30 BEGIN BOND
M  V30 1 1 1 2
M  V30 2 1 1 3
M  V30 3 1 1 4
M  V30 4 1 1 5
M  V30 5 1 6 7
M  V30 6 1 6 8
M  V30 7 1 6 9
M  V30 8 1 6 10
M  V30 9 1 11 12
M  V30 10 1 11 13
M  V30 11 1 11 14
M  V30 12 1 11 15
M  V30 13 1 16 17
M  V30 14 1 16 18
M  V30 15 1 16 19
M  V30 16 1 16 20
M  V30 17 1 21 22
M  V30 18 1 21 23
M  V30 19 1 21 24
M  V30 20 1 21 25
M  V30 21 1 26 27
M  V30 22 1 26 28
M  V30 23 1 26 29
M  V30 24 1 26 30
M  V30 25 1 31 32
M  V30 26 1 31 33
M  V30 27 1 31 34
M  V30 28 1 31 35
M  V30 29 1 36 37
M  V30 30 1 36 38
M  V30 31 1 36 39
M  V30 32 1 36 40
M  V30 33 1 41 42
M  V30 34 1 41 43
M  V30 35 1 41 44
M  V30 36 1 41 45
M  V30 37 1 46 47
M  V30 38 1 47 48
M  V30 39 1 49 50
M  V30 40 1 50 51
M  V30 41 1 52 53
M  V30 42 1 53 54
M  V30 43 1 55 56
M  V30 44 1 56 57
M  V30 45 1 58 59
M  V30 46 1 59 60
M  V30 47 1 61 62
M  V30 48 1 62 63
M  V30 49 1 64 65
M  V30 50 1 65 66
M  V30 51 1 67 68
M  V30 52 1 68 69
M  V30 53 1 70 71
M  V30 54 1 71 72
M  V30 55 1 73 74
M  V30 56 1 74 75
M  V30 57 1 76 77
M  V30 58 1 77 78
M  V30 59 1 79 80
M  V30 60 1 80 81
M  V30 61 1 82 83
M  V30 62 1 83 84
M  V30 63 1 85 86
M  V30 64 1 86 87
M  V30 65 1 88 89
M  V30 66 1 89 90
M  V30 67 1 91 92
M  V30 68 1 92 93
M  V30 69 1 94 95
M  V30 70 1 95 96
M  V30 71 1 97 98
M  V30 72 1 98 99
M  V30 73 1 2 82
M  V30 74 1 3 97
M  V30 75 1 4 67
M  V30 76 1 5 70
M  V30 77 1 7 46
M  V30 78 1 8 91
M  V30 79 1 9 64
M  V30 80 1 10 88
M  V30 81 1 12 58
M  V30 82 1 13 79
M  V30 83 1 14 94
M  V30 84 1 15 55
M  V30 85 1 17 96
M  V30 86 1 18 52
M  V30 87 1 19 85
M  V30 88 1 20 61
M  V30 89 1 22 48
M  V30 90 1 23 81
M  V30 91 1 24 87
M  V30 92 1 25 49
M  V30 93 1 27 54
M  V30 94 1 28 76
M  V30 95 1 29 69
M  V30 96 1 30 63
M  V30 97 1 32 84
M  V30 98 1 33 78
M  V30 99 1 34 57
M  V30 100 1 35 60
M  V30 101 1 37 51
M  V30 102 1 38 73
M  V30 103 1 39 66
M  V30 104 1 40 72
M  V30 105 1 42 93
M  V30 106 1 43 99
M  V30 107 1 44 75
M  V30 108 1 45 90
M  V30 END BOND
M  V30 END CTAB
M  END

$$$$
