
     RDKit          3D

  0  0  0  0  0  0  0  0  0  0999 V3000
M  V30 BEGIN CTAB
M  V30 COUNTS 99 108 0 0 0
M  V30 BEGIN ATOM
M  V30 1 Pd -0.4861 2.8037 -4.6883 0
M  V30 2 Pb 0.4178 3.0889 -4.3687 0
M  V30 3 Pb -0.8026 3.7415 -4.5226 0
M  V30 4 Pb -0.1419 1.9129 -4.9960 0
M  V30 5 Pb -1.4098 2.4764 -4.8908 0
M  V30 6 Pd -3.7349 3.6263 4.4512 0
M  V30 7 Pb -3.1317 2.9033 4.7878 0
M  V30 8 Pb -2.9579 4.1802 4.1371 0
M  V30 9 Pb -4.5558 3.0690 4.5530 0
M  V30 10 Pb -4.3224 4.3547 4.1205 0
M  V30 11 Pd 3.9311 -2.4229 3.6219 0
M  V30 12 Pb 3.8073 -1.4373 3.4786 0
M  V30 13 Pb 3.1891 -2.4306 4.2974 0
M  V30 14 Pb 4.0780 -3.4064 3.7581 0
M  V30 15 Pb 4.7045 -2.4022 2.9895 0
M  V30 16 Pd 2.9164 -7.0185 0.8660 0
M  V30 17 Pb 3.3928 -6.8240 1.7253 0
M  V30 18 Pb 3.7619 -6.9764 0.3353 0
M  V30 19 Pb 2.0453 -6.9893 1.3485 0
M  V30 20 Pb 2.4395 -7.1404 -0.0043 0
M  V30 21 Pd -1.6466 -1.9705 4.0712 0
M  V30 22 Pb -1.7199 -1.0320 4.4163 0
M  V30 23 Pb -0.8600 -2.0855 4.6799 0
M  V30 24 Pb -1.5542 -2.9255 3.7984 0
M  V30 25 Pb -2.4063 -1.8973 3.4204 0
M  V30 26 Pd 3.8462 -3.7737 -5.3021 0
M  V30 27 Pb 4.4951 -4.3425 -4.7976 0
M  V30 28 Pb 4.5294 -3.0502 -5.3522 0
M  V30 29 Pb 3.1541 -3.1686 -5.6968 0
M  V30 30 Pb 3.1632 -4.4789 -5.1213 0
M  V30 31 Pd 5.4378 0.9316 -0.2636 0
M  V30 32 Pb 4.9829 1.6935 -0.7246 0
M  V30 33 Pb 5.8683 0.7228 -1.1390 0
M  V30 34 Pb 5.8721 0.1323 0.1489 0
M  V30 35 Pb 4.9563 1.0995 0.5992 0
M  V30 36 Pd -6.8048 0.9253 -1.1185 0
M  V30 37 Pb -6.3828 0.1051 -0.7330 0
M  V30 38 Pb -7.1465 1.7891 -1.4884 0
M  V30 39 Pb -7.1730 1.0772 -0.2006 0
M  V30 40 Pb -6.3620 0.8073 -2.0082 0
M  V30 41 Pd -3.4653 6.9100 -1.6841 0
M  V30 42 Pb -2.7170 6.9182 -1.0144 0
M  V30 43 Pb -2.8514 6.7255 -2.4522 0
M  V30 44 Pb -4.2766 6.7345 -2.2370 0
M  V30 45 Pb -4.0800 7.0809 -0.9237 0
M  V30 46 Ag 1.0606 3.3116 -4.0513 0
M  V30 47 Fe 2.8760 2.8082 -2.6041 0
M  V30 48 Ag 4.6574 2.2224 -1.1457 0
M  V30 49 Ag -2.9422 -1.9502 2.8931 0
M  V30 50 Fe -4.4900 -1.1741 1.2640 0
M  V30 51 Ag -6.0613 -0.4710 -0.3760 0
M  V30 52 Ag 1.3868 -6.9022 1.6886 0
M  V30 53 Fe -0.0912 -5.3295 2.6708 0
M  V30 54 Ag -1.4646 -3.6461 3.6207 0
M  V30 55 Ag 4.3246 -6.8964 -0.1526 0
M  V30 56 Fe 4.7981 -5.8909 -2.2504 0
M  V30 57 Ag 4.9106 -4.7619 -4.3357 0
M  V30 58 Ag -4.7111 4.9044 3.8093 0
M  V30 59 Fe -4.7923 6.1601 1.8092 0
M  V30 60 Ag -4.5080 7.1423 -0.3211 0
M  V30 61 Ag -2.4567 4.6125 3.7722 0
M  V30 62 Fe -2.1892 5.7862 1.7159 0
M  V30 63 Ag -2.2561 6.8381 -0.4211 0
M  V30 64 Ag 2.1336 -7.1658 -0.6881 0
M  V30 65 Fe 2.2770 -6.1934 -2.8486 0
M  V30 66 Ag 2.7051 -5.0101 -4.8609 0
M  V30 67 Ag -5.2031 2.7096 4.4473 0
M  V30 68 Fe -6.4372 1.8608 2.6052 0
M  V30 69 Ag -7.3378 1.1425 0.5289 0
M  V30 70 Ag 0.0808 1.2714 -5.3229 0
M  V30 71 Fe 1.3743 -0.7053 -5.5923 0
M  V30 72 Ag 2.6181 -2.7019 -5.9384 0
M  V30 73 Ag -2.0885 2.1664 -4.9763 0
M  V30 74 Fe -4.0827 1.4603 -3.8938 0
M  V30 75 Ag -6.0163 0.8100 -2.6750 0
M  V30 76 Ag -7.2816 2.4451 -1.8259 0
M  V30 77 Fe -6.2718 4.5420 -2.2932 0
M  V30 78 Ag -4.9285 6.4870 -2.5068 0
M  V30 79 Ag 5.0301 -2.5040 -5.2664 0
M  V30 80 Fe 5.7134 -0.9103 -3.6503 0
M  V30 81 Ag 6.1168 0.5407 -1.8198 0
M  V30 82 Ba -2.6544 2.3964 5.0656 0
M  V30 83 Ga -2.2302 0.9988 4.8466 0
M  V30 84 Ba -1.6833 -0.3707 4.7746 0
M  V30 85 Ba 5.2997 -2.3691 2.5354 0
M  V30 86 Ga 5.7470 -1.4335 1.4883 0
M  V30 87 Ba 6.1752 -0.4856 0.4443 0
M  V30 88 Ba 3.7332 -0.6958 3.3664 0
M  V30 89 Ga 4.1558 0.2510 2.3112 0
M  V30 90 Ba 4.5850 1.1857 1.2479 0
M  V30 91 Ba 4.2127 -4.1408 3.8611 0
M  V30 92 Ga 3.9671 -5.3933 3.1143 0
M  V30 93 Ba 3.7266 -6.6521 2.3765 0
M  V30 94 Ba -0.9665 4.4763 -4.4863 0
M  V30 95 Ga -1.7106 5.4916 -3.7130 0
M  V30 96 Ba -2.4009 6.6123 -3.0413 0
M  V30 97 Ba 2.6627 -2.4330 4.8364 0
M  V30 98 Ga 1.1951 -2.3038 4.9550 0
M  V30 99 Ba -0.2673 -2.1807 5.1316 0
M  V30 END ATOM
M  V30 BEGIN BOND
M  V30 1 1 1 2
M  V30 2 1 1 3
M  V30 3 1 1 4
M  V30 4 1 1 5
M  V30 5 1 6 7
M  V30 6 1 6 8
M  V30 7 1 6 9
M  V30 8 1 6 10
M  V30 9 1 11 12
M  V30 10 1 11 13
M  V30 11 1 11 14
M  V30 12 1 11 15
M  V30 13 1 16 17
M  V30 14 1 16 18
M  V30 15 1 16 19
M  V30 16 1 16 20
M  V30 17 1 21 22
M  V30 18 1 21 23
M  V30 19 1 21 24
M  V30 20 1 21 25
M  V30 21 1 26 27
M  V30 22 1 26 28
M  V30 23 1 26 29
M  V30 24 1 26 30
M  V30 25 1 31 32
M  V30 26 1 31 33
M  V30 27 1 31 34
M  V30 28 1 31 35
M  V30 29 1 36 37
M  V30 30 1 36 38
M  V30 31 1 36 39
M  V30 32 1 36 40
M  V30 33 1 41 42
M  V30 34 1 41 43
M  V30 35 1 41 44
M  V30 36 1 41 45
M  V30 37 1 46 47
M  V30 38 1 47 48
M  V30 39 1 49 50
M  V30 40 1 50 51
M  V30 41 1 52 53
M  V30 42 1 53 54
M  V30 43 1 55 56
M  V30 44 1 56 57
M  V30 45 1 58 59
M  V30 46 1 59 60
M  V30 47 1 61 62
M  V30 48 1 62 63
M  V30 49 1 64 65
M  V30 50 1 65 66
M  V30 51 1 67 68
M  V30 52 1 68 69
M  V30 53 1 70 71
M  V30 54 1 71 72
M  V30 55 1 73 74
M  V30 56 1 74 75
M  V30 57 1 76 77
M  V30 58 1 77 78
M  V30 59 1 79 80
M  V30 60 1 80 81
M  V30 61 1 82 83
M  V30 62 1 83 84
M  V30 63 1 85 86
M  V30 64 1 86 87
M  V30 65 1 88 89
M  V30 66 1 89 90
M  V30 67 1 91 92
M  V30 68 1 92 93
M  V30 69 1 94 95
M  V30 70 1 95 96
M  V30 71 1 97 98
M  V30 72 1 98 99
M  V30 73 1 2 46
M  V30 74 1 3 94
M  V30 75 1 4 70
M  V30 76 1 5 73
M  V30 77 1 7 82
M  V30 78 1 8 61
M  V30 79 1 9 67
M  V30 80 1 10 58
M  V30 81 1 12 88
M  V30 82 1 13 97
M  V30 83 1 14 91
M  V30 84 1 15 85
M  V30 85 1 17 93
M  V30 86 1 18 55
M  V30 87 1 19 52
M  V30 88 1 20 64
M  V30 89 1 22 84
M  V30 90 1 23 99
M  V30 91 1 24 54
M  V30 92 1 25 49
M  V30 93 1 27 57
M  V30 94 1 28 79
M  V30 95 1 29 72
M  V30 96 1 30 66
M  V30 97 1 32 48
M  V30 98 1 33 81
M  V30 99 1 34 87
M  V30 100 1 35 90
M  V30 101 1 37 51
M  V30 102 1 38 76
M  V30 103 1 39 69
M  V30 104 1 40 75
M  V30 105 1 42 63
M  V30 106 1 43 96
M  V30 107 1 44 78
M  V30 108 1 45 60
M  V30 END BOND
M  V30 END CTAB
M  END

$$$$
