
     RDKit          3D

  0  0  0  0  0  0  0  0  0  0999 V3000
M  V30 BEGIN CTAB
M  V30 COUNTS 99 108 0 0 0
M  V30 BEGIN ATOM
M  V30 1 Pd 2.9933 -2.2986 -1.5198 0
M  V30 2 Pb 3.8192 -2.2369 -0.9604 0
M  V30 3 Pb 2.7055 -1.4105 -1.1708 0
M  V30 4 Pb 3.2551 -3.2266 -1.7835 0
M  V30 5 Pb 2.1728 -2.3405 -2.0948 0
M  V30 6 Pd -2.8485 7.3527 -3.1193 0
M  V30 7 Pb -3.6585 6.9225 -2.7156 0
M  V30 8 Pb -2.4658 7.5628 -2.2221 0
M  V30 9 Pb -3.0766 6.9769 -4.0098 0
M  V30 10 Pb -2.0178 7.7181 -3.5338 0
M  V30 11 Pd -0.6987 0.7481 5.6163 0
M  V30 12 Pb -0.0250 1.4578 5.7872 0
M  V30 13 Pb -1.2638 1.4111 5.1224 0
M  V30 14 Pb -1.3957 0.0522 5.4421 0
M  V30 15 Pb -0.0746 0.0665 6.0524 0
M  V30 16 Pd -2.9547 -5.0195 1.2676 0
M  V30 17 Pb -3.3201 -4.4418 1.9948 0
M  V30 18 Pb -2.4682 -5.5974 0.5909 0
M  V30 19 Pb -2.6826 -4.1985 0.7693 0
M  V30 20 Pb -3.1436 -5.8305 1.8134 0
M  V30 21 Pd -3.9050 2.3855 -1.1544 0
M  V30 22 Pb -4.4372 3.2184 -1.3252 0
M  V30 23 Pb -3.7177 2.7019 -0.2224 0
M  V30 24 Pb -3.3612 1.5628 -1.0011 0
M  V30 25 Pb -4.1032 2.0069 -2.0603 0
M  V30 26 Pd 2.1023 -7.3034 0.6851 0
M  V30 27 Pb 1.2621 -7.3017 0.1222 0
M  V30 28 Pb 2.8361 -7.1679 1.3493 0
M  V30 29 Pb 2.6084 -6.8388 -0.0474 0
M  V30 30 Pb 1.6125 -7.8345 1.3702 0
M  V30 31 Pd 4.5613 -1.8528 5.3610 0
M  V30 32 Pb 5.2667 -1.8301 4.6591 0
M  V30 33 Pb 4.4858 -2.8304 5.1545 0
M  V30 34 Pb 3.7157 -1.8277 5.9279 0
M  V30 35 Pb 4.6989 -0.8876 5.5507 0
M  V30 36 Pd -0.6249 0.9038 -4.8195 0
M  V30 37 Pb -1.5891 0.6467 -4.7593 0
M  V30 38 Pb 0.3116 1.2638 -4.8280 0
M  V30 39 Pb -0.9582 1.7312 -5.2662 0
M  V30 40 Pb -0.3466 0.0220 -4.4228 0
M  V30 41 Pd 1.3178 5.1664 -2.3380 0
M  V30 42 Pb 0.8695 5.7665 -1.6678 0
M  V30 43 Pb 1.3621 4.4233 -1.6778 0
M  V30 44 Pb 1.7212 4.5415 -3.0145 0
M  V30 45 Pb 1.2683 5.9151 -2.9957 0
M  V30 46 Ag 4.4230 -2.1781 -0.5205 0
M  V30 47 Fe 5.2226 -1.9992 1.7052 0
M  V30 48 Ag 5.6646 -1.8379 4.0292 0
M  V30 49 Ag -2.4357 -3.5764 0.4346 0
M  V30 50 Fe -2.7204 -1.3199 -0.2424 0
M  V30 51 Ag -2.9574 0.9359 -0.9398 0
M  V30 52 Ag 0.5717 1.8801 5.8968 0
M  V30 53 Fe 2.8571 1.3212 5.8928 0
M  V30 54 Ag 4.6727 -0.1616 5.6889 0
M  V30 55 Ag -3.0715 -6.4548 2.2040 0
M  V30 56 Fe -1.1092 -7.7430 2.3760 0
M  V30 57 Ag 1.1397 -8.1766 1.8287 0
M  V30 58 Ag -1.9411 -0.4397 5.2884 0
M  V30 59 Fe -2.7796 -2.2183 3.9577 0
M  V30 60 Ag -3.5115 -3.9960 2.5645 0
M  V30 61 Ag -3.0901 6.5792 -4.6369 0
M  V30 62 Fe -2.2570 4.4628 -5.2988 0
M  V30 63 Ag -1.2935 2.3174 -5.5879 0
M  V30 64 Ag 2.4833 -0.7651 -0.8674 0
M  V30 65 Fe 1.9424 1.5376 -1.0188 0
M  V30 66 Ag 1.4120 3.8391 -1.2184 0
M  V30 67 Ag 3.2890 -7.0087 1.9254 0
M  V30 68 Fe 3.9440 -5.3104 3.4537 0
M  V30 69 Ag 4.5312 -3.5502 4.9391 0
M  V30 70 Ag -1.6643 1.8982 4.7139 0
M  V30 71 Fe -2.6391 2.4349 2.6134 0
M  V30 72 Ag -3.5902 2.9126 0.4880 0
M  V30 73 Ba -4.2632 6.5748 -2.4342 0
M  V30 74 Ga -4.5426 5.2122 -1.9321 0
M  V30 75 Ba -4.8310 3.8521 -1.4287 0
M  V30 76 Ba -4.2182 1.6381 -2.7056 0
M  V30 77 Ga -3.3044 1.0849 -3.7260 0
M  V30 78 Ba -2.3330 0.5625 -4.7088 0
M  V30 79 Ba -2.0888 -6.0317 0.0895 0
M  V30 80 Ga -0.7340 -6.6396 -0.0619 0
M  V30 81 Ba 0.6046 -7.2692 -0.2620 0
M  V30 82 Ba 0.3849 -0.4456 6.4015 0
M  V30 83 Ga 1.7391 -1.0843 6.3104 0
M  V30 84 Ba 3.0616 -1.7924 6.3308 0
M  V30 85 Ba -1.3675 7.9187 -3.8428 0
M  V30 86 Ga -0.0559 7.2691 -3.7005 0
M  V30 87 Ba 1.1739 6.5038 -3.4467 0
M  V30 88 Ba -2.0669 7.6264 -1.5916 0
M  V30 89 Ga -0.7765 6.9579 -1.3206 0
M  V30 90 Ba 0.5021 6.2257 -1.1939 0
M  V30 91 Ba 3.4584 -3.9330 -1.9319 0
M  V30 92 Ga 3.2086 -5.2308 -1.2701 0
M  V30 93 Ba 2.9811 -6.5454 -0.6340 0
M  V30 94 Ba 1.5564 -2.3826 -2.5246 0
M  V30 95 Ga 0.7093 -1.4759 -3.3327 0
M  V30 96 Ba -0.2146 -0.6787 -4.1708 0
M  V30 97 Ba 0.9876 1.5974 -4.8267 0
M  V30 98 Ga 1.5126 2.8157 -4.1662 0
M  V30 99 Ba 2.0149 4.0378 -3.4952 0
M  V30 END ATOM
M  V30 BEGIN BOND
M  V30 1 1 1 2
M  V30 2 1 1 3
M  V30 3 1 1 4
M  V30 4 1 1 5
M  V30 5 1 6 7
M  V30 6 1 6 8
M  V30 7 1 6 9
M  V30 8 1 6 10
M  V30 9 1 11 12
M  V30 10 1 11 13
M  V30 11 1 11 14
M  V30 12 1 11 15
M  V30 13 1 16 17
M  V30 14 1 16 18
M  V30 15 1 16 19
M  V30 16 1 16 20
M  V30 17 1 21 22
M  V30 18 1 21 23
M  V30 19 1 21 24
M  V30 20 1 21 25
M  V30 21 1 26 27
M  V30 22 1 26 28
M  V30 23 1 26 29
M  V30 24 1 26 30
M  V30 25 1 31 32
M  V30 26 1 31 33
M  V30 27 1 31 34
M  V30 28 1 31 35
M  V30 29 1 36 37
M  V30 30 1 36 38
M  V30 31 1 36 39
M  V30 32 1 36 40
M  V30 33 1 41 42
M  V30 34 1 41 43
M  V30 35 1 41 44
M  V30 36 1 41 45
M  V30 37 1 46 47
M  V30 38 1 47 48
M  V30 39 1 49 50
M  V30 40 1 50 51
M  V30 41 1 52 53
M  V30 42 1 53 54
M  V30 43 1 55 56
M  V30 44 1 56 57
M  V30 45 1 58 59
M  V30 46 1 59 60
M  V30 47 1 61 62
M  V30 48 1 62 63
M  V30 49 1 64 65
M  V30 50 1 65 66
M  V30 51 1 67 68
M  V30 52 1 68 69
M  V30 53 1 70 71
M  V30 54 1 71 72
M  V30 55 1 73 74
M  V30 56 1 74 75
M  V30 57 1 76 77
M  V30 58 1 77 78
M  V30 59 1 79 80
M  V30 60 1 80 81
M  V30 61 1 82 83
M  V30 62 1 83 84
M  V30 63 1 85 86
M  V30 64 1 86 87
M  V30 65 1 88 89
M  V30 66 1 89 90
M  V30 67 1 91 92
M  V30 68 1 92 93
M  V30 69 1 94 95
M  V30 70 1 95 96
M  V30 71 1 97 98
M  V30 72 1 98 99
M  V30 73 1 2 46
M  V30 74 1 3 64
M  V30 75 1 4 91
M  V30 76 1 5 94
M  V30 77 1 7 73
M  V30 78 1 8 88
M  V30 79 1 9 61
M  V30 80 1 10 85
M  V30 81 1 12 52
M  V30 82 1 13 70
M  V30 83 1 14 58
M  V30 84 1 15 82
M  V30 85 1 17 60
M  V30 86 1 18 79
M  V30 87 1 19 49
M  V30 88 1 20 55
M  V30 89 1 22 75
M  V30 90 1 23 72
M  V30 91 1 24 51
M  V30 92 1 25 76
M  V30 93 1 27 81
M  V30 94 1 28 67
M  V30 95 1 29 93
M  V30 96 1 30 57
M  V30 97 1 32 48
M  V30 98 1 33 69
M  V30 99 1 34 84
M  V30 100 1 35 54
M  V30 101 1 37 78
M  V30 102 1 38 97
M  V30 103 1 39 63
M  V30 104 1 40 96
M  V30 105 1 42 90
M  V30 106 1 43 66
M  V30 107 1 44 99
M  V30 108 1 45 87
M  V30 END BOND
M  V30 END CTAB
M  END

$$$$
