
     RDKit          3D

  0  0  0  0  0  0  0  0  0  0999 V3000
M  V30 BEGIN CTAB
M  V30 COUNTS 99 108 0 0 0
M  V30 BEGIN ATOM
M  V30 1 Pd -1.5526 -3.4588 2.8626 0
M  V30 2 Pb -1.8337 -3.0653 3.7392 0
M  V30 3 Pb -1.2769 -3.7952 1.9615 0
M  V30 4 Pb -2.5040 -3.6686 2.6406 0
M  V30 5 Pb -0.6042 -3.2073 3.0471 0
M  V30 6 Pd 5.6455 -3.5247 -5.4604 0
M  V30 7 Pb 4.9548 -2.8064 -5.3902 0
M  V30 8 Pb 4.9356 -4.2018 -5.7043 0
M  V30 9 Pb 6.3034 -2.9519 -4.9767 0
M  V30 10 Pb 6.3456 -4.2290 -5.5511 0
M  V30 11 Pd -1.8133 6.1449 3.2060 0
M  V30 12 Pb -2.7386 6.2555 3.5656 0
M  V30 13 Pb -0.8816 6.0413 2.8639 0
M  V30 14 Pb -2.1066 6.4809 2.3083 0
M  V30 15 Pb -1.5348 5.7790 4.0962 0
M  V30 16 Pd -2.8170 4.2229 -2.0527 0
M  V30 17 Pb -2.8244 5.0436 -1.4738 0
M  V30 18 Pb -3.7611 3.9793 -1.7524 0
M  V30 19 Pb -1.9055 4.4544 -2.3977 0
M  V30 20 Pb -2.8236 3.4424 -2.6666 0
M  V30 21 Pd 2.7603 2.7452 -1.8566 0
M  V30 22 Pb 2.7449 2.0872 -2.6084 0
M  V30 23 Pb 2.7481 3.3900 -1.0960 0
M  V30 24 Pb 2.0612 3.3034 -2.3099 0
M  V30 25 Pb 3.5185 2.2567 -1.4188 0
M  V30 26 Pd -6.8450 0.1280 -0.3438 0
M  V30 27 Pb -6.6871 1.0975 -0.6084 0
M  V30 28 Pb -7.1812 0.4082 0.5532 0
M  V30 29 Pb -6.8557 -0.8171 -0.0254 0
M  V30 30 Pb -6.4762 -0.1690 -1.2166 0
M  V30 31 Pd -4.3429 2.8327 6.0892 0
M  V30 32 Pb -4.0151 1.9078 6.2880 0
M  V30 33 Pb -5.2029 2.4622 5.7465 0
M  V30 34 Pb -3.4602 3.2271 6.3439 0
M  V30 35 Pb -4.6566 3.7459 5.8353 0
M  V30 36 Pd 5.3949 -2.2873 -0.2461 0
M  V30 37 Pb 5.4106 -1.2866 -0.2916 0
M  V30 38 Pb 5.3925 -3.2857 -0.1118 0
M  V30 39 Pb 6.0361 -2.2857 -1.0232 0
M  V30 40 Pb 4.7884 -2.2480 0.5474 0
M  V30 41 Pd 3.3843 -6.9009 -2.2071 0
M  V30 42 Pb 3.1827 -6.8138 -3.1933 0
M  V30 43 Pb 2.5568 -6.3870 -1.9796 0
M  V30 44 Pb 3.7484 -6.7712 -1.2885 0
M  V30 45 Pb 4.1856 -7.4527 -2.4247 0
M  V30 46 Ag 4.4463 -2.2580 -5.3485 0
M  V30 47 Fe 3.5831 -0.3357 -4.2553 0
M  V30 48 Ag 2.7168 1.5870 -3.1653 0
M  V30 49 Ag -2.0457 -2.7342 4.3794 0
M  V30 50 Fe -2.9060 -0.7875 5.4366 0
M  V30 51 Ag -3.7705 1.2062 6.3985 0
M  V30 52 Ag 6.7668 -4.8368 -5.5041 0
M  V30 53 Fe 6.3102 -6.7323 -4.1931 0
M  V30 54 Ag 4.8191 -7.7393 -2.6820 0
M  V30 55 Ag -2.9325 2.8314 -3.0696 0
M  V30 56 Fe -4.4060 1.0075 -2.8543 0
M  V30 57 Ag -6.0989 -0.2781 -1.8428 0
M  V30 58 Ag -3.2151 -3.7774 2.4317 0
M  V30 59 Fe -5.0811 -2.7728 1.3651 0
M  V30 60 Ag -6.7525 -1.4972 0.2661 0
M  V30 61 Ag 0.1076 -2.9988 3.1479 0
M  V30 62 Fe 2.2373 -2.6132 2.1729 0
M  V30 63 Ag 4.3487 -2.2405 1.1543 0
M  V30 64 Ag -1.0769 -4.0112 1.2710 0
M  V30 65 Fe 0.4400 -5.0258 -0.2496 0
M  V30 66 Ag 1.9186 -6.0281 -1.8156 0
M  V30 67 Ag -7.3925 0.5879 1.2479 0
M  V30 68 Fe -6.7057 1.3900 3.3719 0
M  V30 69 Ag -5.8234 2.2113 5.4146 0
M  V30 70 Ag -0.1847 5.9599 2.6047 0
M  V30 71 Fe 1.2970 4.9383 1.0595 0
M  V30 72 Ag 2.7025 3.8687 -0.5240 0
M  V30 73 Ba 4.1262 1.9647 -1.0844 0
M  V30 74 Ga 4.7399 0.6721 -0.7159 0
M  V30 75 Ba 5.4725 -0.5374 -0.2873 0
M  V30 76 Ba -1.2420 4.6219 -2.7088 0
M  V30 77 Ga 0.1615 4.1631 -2.6420 0
M  V30 78 Ba 1.5886 3.7790 -2.6523 0
M  V30 79 Ba -4.4957 3.8448 -1.5667 0
M  V30 80 Ga -5.4698 2.7785 -1.1725 0
M  V30 81 Ba -6.5634 1.8362 -0.7749 0
M  V30 82 Ba -1.3553 5.4860 4.7651 0
M  V30 83 Ga -2.0436 4.5249 5.6497 0
M  V30 84 Ba -2.8002 3.5594 6.4715 0
M  V30 85 Ba 4.4013 -4.7375 -5.7994 0
M  V30 86 Ga 3.7413 -5.7125 -4.8812 0
M  V30 87 Ba 3.0994 -6.6760 -3.9383 0
M  V30 88 Ba -3.4193 6.3165 3.8713 0
M  V30 89 Ga -4.1809 5.4034 4.7401 0
M  V30 90 Ba -4.8656 4.4258 5.6026 0
M  V30 91 Ba -2.3294 6.7368 1.6369 0
M  V30 92 Ga -2.5758 6.1741 0.2911 0
M  V30 93 Ba -2.8429 5.6866 -1.0798 0
M  V30 94 Ba 6.7690 -2.6017 -4.5062 0
M  V30 95 Ga 6.6526 -2.3850 -3.0460 0
M  V30 96 Ba 6.5337 -2.1773 -1.5848 0
M  V30 97 Ba 5.3482 -4.0077 0.1158 0
M  V30 98 Ga 4.7295 -5.2950 -0.2745 0
M  V30 99 Ba 4.1202 -6.5866 -0.6656 0
M  V30 END ATOM
M  V30 BEGIN BOND
M  V30 1 1 1 2
M  V30 2 1 1 3
M  V30 3 1 1 4
M  V30 4 1 1 5
M  V30 5 1 6 7
M  V30 6 1 6 8
M  V30 7 1 6 9
M  V30 8 1 6 10
M  V30 9 1 11 12
M  V30 10 1 11 13
M  V30 11 1 11 14
M  V30 12 1 11 15
M  V30 13 1 16 17
M  V30 14 1 16 18
M  V30 15 1 16 19
M  V30 16 1 16 20
M  V30 17 1 21 22
M  V30 18 1 21 23
M  V30 19 1 21 24
M  V30 20 1 21 25
M  V30 21 1 26 27
M  V30 22 1 26 28
M  V30 23 1 26 29
M  V30 24 1 26 30
M  V30 25 1 31 32
M  V30 26 1 31 33
M  V30 27 1 31 34
M  V30 28 1 31 35
M  V30 29 1 36 37
M  V30 30 1 36 38
M  V30 31 1 36 39
M  V30 32 1 36 40
M  V30 33 1 41 42
M  V30 34 1 41 43
M  V30 35 1 41 44
M  V30 36 1 41 45
M  V30 37 1 46 47
M  V30 38 1 47 48
M  V30 39 1 49 50
M  V30 40 1 50 51
M  V30 41 1 52 53
M  V30 42 1 53 54
M  V30 43 1 55 56
M  V30 44 1 56 57
M  V30 45 1 58 59
M  V30 46 1 59 60
M  V30 47 1 61 62
M  V30 48 1 62 63
M  V30 49 1 64 65
M  V30 50 1 65 66
M  V30 51 1 67 68
M  V30 52 1 68 69
M  V30 53 1 70 71
M  V30 54 1 71 72
M  V30 55 1 73 74
M  V30 56 1 74 75
M  V30 57 1 76 77
M  V30 58 1 77 78
M  V30 59 1 79 80
M  V30 60 1 80 81
M  V30 61 1 82 83
M  V30 62 1 83 84
M  V30 63 1 85 86
M  V30 64 1 86 87
M  V30 65 1 88 89
M  V30 66 1 89 90
M  V30 67 1 91 92
M  V30 68 1 92 93
M  V30 69 1 94 95
M  V30 70 1 95 96
M  V30 71 1 97 98
M  V30 72 1 98 99
M  V30 73 1 2 49
M  V30 74 1 3 64
M  V30 75 1 4 58
M  V30 76 1 5 61
M  V30 77 1 7 46
M  V30 78 1 8 85
M  V30 79 1 9 94
M  V30 80 1 10 52
M  V30 81 1 12 88
M  V30 82 1 13 70
M  V30 83 1 14 91
M  V30 84 1 15 82
M  V30 85 1 17 93
M  V30 86 1 18 79
M  V30 87 1 19 76
M  V30 88 1 20 55
M  V30 89 1 22 48
M  V30 90 1 23 72
M  V30 91 1 24 78
M  V30 92 1 25 73
M  V30 93 1 27 81
M  V30 94 1 28 67
M  V30 95 1 29 60
M  V30 96 1 30 57
M  V30 97 1 32 51
M  V30 98 1 33 69
M  V30 99 1 34 84
M  V30 100 1 35 90
M  V30 101 1 37 75
M  V30 102 1 38 97
M  V30 103 1 39 96
M  V30 104 1 40 63
M  V30 105 1 42 87
M  V30 106 1 43 66
M  V30 107 1 44 99
M  V30 108 1 45 54
M  V30 END BOND
M  V30 END CTAB
M  END

$$$$
