
     RDKit          3D

  0  0  0  0  0  0  0  0  0  0999 V3000
M  V30 BEGIN CTAB
M  V30 COUNTS 99 108 0 0 0
M  V30 BEGIN ATOM
M  V30 1 Pd -4.2510 0.3180 -0.5666 0
M  V30 2 Pb -4.6425 -0.4295 -0.0347 0
M  V30 3 Pb -3.3780 -0.1610 -0.4895 0
M  V30 4 Pb -5.1226 0.8083 -0.5370 0
M  V30 5 Pb -3.8069 1.0510 -1.0873 0
M  V30 6 Pd 4.8034 -4.3412 -4.9652 0
M  V30 7 Pb 5.4637 -3.6778 -4.6114 0
M  V30 8 Pb 4.6780 -4.7587 -4.0649 0
M  V30 9 Pb 4.7537 -3.8336 -5.8216 0
M  V30 10 Pb 4.0811 -4.9483 -5.2899 0
M  V30 11 Pd 2.3616 -1.0875 4.9155 0
M  V30 12 Pb 1.7999 -0.9295 5.7303 0
M  V30 13 Pb 2.9221 -1.2414 4.0976 0
M  V30 14 Pb 2.7492 -0.1694 4.9878 0
M  V30 15 Pb 1.9406 -1.9918 4.8343 0
M  V30 16 Pd 0.9959 5.7276 2.4861 0
M  V30 17 Pb 1.7150 5.3182 3.0438 0
M  V30 18 Pb 0.4044 5.8061 3.2853 0
M  V30 19 Pb 1.5389 5.5701 1.6640 0
M  V30 20 Pb 0.2177 6.0399 1.9404 0
M  V30 21 Pd 4.7596 0.7507 -2.3880 0
M  V30 22 Pb 5.3068 0.0150 -2.8007 0
M  V30 23 Pb 4.7782 0.2486 -1.5187 0
M  V30 24 Pb 4.3239 1.5510 -1.9752 0
M  V30 25 Pb 4.7014 1.2598 -3.2503 0
M  V30 26 Pd -5.7371 3.7336 2.9956 0
M  V30 27 Pb -5.1413 4.1401 3.6854 0
M  V30 28 Pb -5.9957 3.0343 3.6625 0
M  V30 29 Pb -6.2814 3.3204 2.2633 0
M  V30 30 Pb -5.3549 4.3943 2.3494 0
M  V30 31 Pd -2.5641 -2.3404 5.8229 0
M  V30 32 Pb -3.1623 -2.7161 5.1194 0
M  V30 33 Pb -3.3153 -1.7125 6.0334 0
M  V30 34 Pb -1.8117 -2.9436 5.5536 0
M  V30 35 Pb -1.9445 -1.8975 6.4706 0
M  V30 36 Pd 0.8365 1.4303 -5.9424 0
M  V30 37 Pb 1.6939 1.9300 -5.8047 0
M  V30 38 Pb 0.0117 0.8690 -6.0151 0
M  V30 39 Pb 1.3510 0.8322 -6.5561 0
M  V30 40 Pb 0.3201 1.9945 -5.2962 0
M  V30 41 Pd -1.3139 -4.2531 -2.3486 0
M  V30 42 Pb -0.5803 -4.7038 -1.8385 0
M  V30 43 Pb -1.3563 -3.5311 -1.6595 0
M  V30 44 Pb -1.8868 -3.7161 -2.9647 0
M  V30 45 Pb -1.1425 -4.9065 -3.0813 0
M  V30 46 Ag -4.8437 -1.0060 0.3961 0
M  V30 47 Fe -4.3532 -2.0775 2.4534 0
M  V30 48 Ag -3.6270 -2.8864 4.5604 0
M  V30 49 Ag 1.9241 5.4102 1.0430 0
M  V30 50 Fe 2.9831 3.7705 -0.3096 0
M  V30 51 Ag 4.0678 2.2169 -1.7408 0
M  V30 52 Ag -0.1174 5.8124 3.8196 0
M  V30 53 Fe -2.3792 5.1904 4.1649 0
M  V30 54 Ag -4.6316 4.4498 4.1360 0
M  V30 55 Ag 3.4725 -5.3509 -5.4491 0
M  V30 56 Fe 1.2276 -5.5465 -4.7169 0
M  V30 57 Ag -0.8653 -5.3308 -3.6281 0
M  V30 58 Ag 4.4168 -5.0305 -3.4159 0
M  V30 59 Fe 2.3273 -5.1368 -2.2900 0
M  V30 60 Ag 0.0646 -4.9885 -1.5802 0
M  V30 61 Ag -0.4275 6.2021 1.5933 0
M  V30 62 Fe -2.7374 5.6487 1.6177 0
M  V30 63 Ag -4.9596 4.8666 1.9212 0
M  V30 64 Ag 3.0140 0.5309 5.0097 0
M  V30 65 Fe 2.7065 2.7712 4.2903 0
M  V30 66 Ag 2.2063 4.9365 3.4586 0
M  V30 67 Ag 4.5887 -3.3918 -6.4005 0
M  V30 68 Fe 3.2356 -1.4982 -6.8602 0
M  V30 69 Ag 1.7913 0.3815 -6.9618 0
M  V30 70 Ag -3.4246 1.5740 -1.4710 0
M  V30 71 Fe -1.7838 2.0409 -3.1276 0
M  V30 72 Ag -0.1288 2.3473 -4.8072 0
M  V30 73 Ag -0.6012 0.4385 -5.9717 0
M  V30 74 Fe -1.5531 -1.4038 -4.8156 0
M  V30 75 Ag -2.1824 -3.2654 -3.4837 0
M  V30 76 Ag -6.0800 2.5132 4.1964 0
M  V30 77 Fe -5.0684 0.6192 5.2154 0
M  V30 78 Ag -3.9092 -1.2567 6.1021 0
M  V30 79 Ag 3.3588 -1.3412 3.4919 0
M  V30 80 Fe 4.0525 -0.7230 1.3016 0
M  V30 81 Ag 4.7991 -0.1624 -0.8868 0
M  V30 82 Ba 5.9425 -3.1572 -4.3595 0
M  V30 83 Ga 5.8209 -1.8319 -3.7135 0
M  V30 84 Ba 5.7891 -0.5015 -3.0678 0
M  V30 85 Ba 4.6140 1.6983 -3.8567 0
M  V30 86 Ga 3.5017 1.9713 -4.7933 0
M  V30 87 Ba 2.3787 2.2304 -5.7210 0
M  V30 88 Ba 1.5864 -2.6528 4.7960 0
M  V30 89 Ga 0.1868 -3.0415 5.0614 0
M  V30 90 Ba -1.2265 -3.3646 5.3419 0
M  V30 91 Ba 1.3657 -0.8307 6.3366 0
M  V30 92 Ga -0.0335 -1.1808 6.6534 0
M  V30 93 Ba -1.4385 -1.5574 6.9075 0
M  V30 94 Ba -5.7761 1.1661 -0.4438 0
M  V30 95 Ga -6.2441 2.0993 0.6010 0
M  V30 96 Ba -6.6487 3.0277 1.6762 0
M  V30 97 Ba -2.7405 -0.5280 -0.3481 0
M  V30 98 Ga -2.0558 -1.7567 -0.7890 0
M  V30 99 Ba -1.3048 -2.9668 -1.1691 0
M  V30 END ATOM
M  V30 BEGIN BOND
M  V30 1 1 1 2
M  V30 2 1 1 3
M  V30 3 1 1 4
M  V30 4 1 1 5
M  V30 5 1 6 7
M  V30 6 1 6 8
M  V30 7 1 6 9
M  V30 8 1 6 10
M  V30 9 1 11 12
M  V30 10 1 11 13
M  V30 11 1 11 14
M  V30 12 1 11 15
M  V30 13 1 16 17
M  V30 14 1 16 18
M  V30 15 1 16 19
M  V30 16 1 16 20
M  V30 17 1 21 22
M  V30 18 1 21 23
M  V30 19 1 21 24
M  V30 20 1 21 25
M  V30 21 1 26 27
M  V30 22 1 26 28
M  V30 23 1 26 29
M  V30 24 1 26 30
M  V30 25 1 31 32
M  V30 26 1 31 33
M  V30 27 1 31 34
M  V30 28 1 31 35
M  V30 29 1 36 37
M  V30 30 1 36 38
M  V30 31 1 36 39
M  V30 32 1 36 40
M  V30 33 1 41 42
M  V30 34 1 41 43
M  V30 35 1 41 44
M  V30 36 1 41 45
M  V30 37 1 46 47
M  V30 38 1 47 48
M  V30 39 1 49 50
M  V30 40 1 50 51
M  V30 41 1 52 53
M  V30 42 1 53 54
M  V30 43 1 55 56
M  V30 44 1 56 57
M  V30 45 1 58 59
M  V30 46 1 59 60
M  V30 47 1 61 62
M  V30 48 1 62 63
M  V30 49 1 64 65
M  V30 50 1 65 66
M  V30 51 1 67 68
M  V30 52 1 68 69
M  V30 53 1 70 71
M  V30 54 1 71 72
M  V30 55 1 73 74
M  V30 56 1 74 75
M  V30 57 1 76 77
M  V30 58 1 77 78
M  V30 59 1 79 80
M  V30 60 1 80 81
M  V30 61 1 82 83
M  V30 62 1 83 84
M  V30 63 1 85 86
M  V30 64 1 86 87
M  V30 65 1 88 89
M  V30 66 1 89 90
M  V30 67 1 91 92
M  V30 68 1 92 93
M  V30 69 1 94 95
M  V30 70 1 95 96
M  V30 71 1 97 98
M  V30 72 1 98 99
M  V30 73 1 2 46
M  V30 74 1 3 97
M  V30 75 1 4 94
M  V30 76 1 5 70
M  V30 77 1 7 82
M  V30 78 1 8 58
M  V30 79 1 9 67
M  V30 80 1 10 55
M  V30 81 1 12 91
M  V30 82 1 13 79
M  V30 83 1 14 64
M  V30 84 1 15 88
M  V30 85 1 17 66
M  V30 86 1 18 52
M  V30 87 1 19 49
M  V30 88 1 20 61
M  V30 89 1 22 84
M  V30 90 1 23 81
M  V30 91 1 24 51
M  V30 92 1 25 85
M  V30 93 1 27 54
M  V30 94 1 28 76
M  V30 95 1 29 96
M  V30 96 1 30 63
M  V30 97 1 32 48
M  V30 98 1 33 78
M  V30 99 1 34 90
M  V30 100 1 35 93
M  V30 101 1 37 87
M  V30 102 1 38 73
M  V30 103 1 39 69
M  V30 104 1 40 72
M  V30 105 1 42 60
M  V30 106 1 43 99
M  V30 107 1 44 75
M  V30 108 1 45 57
M  V30 END BOND
M  V30 END CTAB
M  END

$$$$
