
     RDKit          3D

  0  0  0  0  0  0  0  0  0  0999 V3000
M  V30 BEGIN CTAB
M  V30 COUNTS 99 108 0 0 0
M  V30 BEGIN ATOM
M  V30 1 Pd 3.0622 -3.9009 0.8189 0
M  V30 2 Pb 3.8978 -3.4084 1.0670 0
M  V30 3 Pb 2.2081 -4.3754 0.6004 0
M  V30 4 Pb 2.8502 -4.0612 1.7842 0
M  V30 5 Pb 3.2861 -3.7454 -0.1462 0
M  V30 6 Pd -5.3983 -2.0305 -5.2554 0
M  V30 7 Pb -5.3833 -1.0730 -4.9555 0
M  V30 8 Pb -5.7161 -2.3561 -4.3606 0
M  V30 9 Pb -4.9567 -1.7954 -6.1181 0
M  V30 10 Pb -5.4628 -2.9676 -5.5870 0
M  V30 11 Pd 2.4181 5.8629 2.0264 0
M  V30 12 Pb 2.8744 5.8468 2.9185 0
M  V30 13 Pb 1.9885 5.8564 1.1241 0
M  V30 14 Pb 1.6012 6.2956 2.4171 0
M  V30 15 Pb 3.2376 5.4577 1.6219 0
M  V30 16 Pd -2.3689 4.3412 4.2024 0
M  V30 17 Pb -1.9659 5.2305 3.9827 0
M  V30 18 Pb -1.8577 4.3066 5.0586 0
M  V30 19 Pb -2.8947 4.3499 3.3515 0
M  V30 20 Pb -2.6952 3.4203 4.4243 0
M  V30 21 Pd -2.5267 2.8894 -3.3168 0
M  V30 22 Pb -3.3138 2.3599 -3.6482 0
M  V30 23 Pb -1.7891 3.4853 -2.9997 0
M  V30 24 Pb -3.0817 3.1978 -2.5451 0
M  V30 25 Pb -1.9173 2.5918 -4.0531 0
M  V30 26 Pd 0.8688 -1.0438 7.5275 0
M  V30 27 Pb 0.7104 -0.1143 7.8519 0
M  V30 28 Pb 1.8311 -0.9547 7.7711 0
M  V30 29 Pb 1.0583 -1.9254 7.0973 0
M  V30 30 Pb -0.0672 -1.0291 7.1739 0
M  V30 31 Pd 5.9198 2.4517 3.8904 0
M  V30 32 Pb 6.1943 1.5943 3.4548 0
M  V30 33 Pb 5.8899 1.9778 4.7691 0
M  V30 34 Pb 5.9106 2.9106 3.0044 0
M  V30 35 Pb 5.5692 3.2912 4.3106 0
M  V30 36 Pd 1.4656 -2.5975 -6.6971 0
M  V30 37 Pb 1.4782 -1.6005 -6.6611 0
M  V30 38 Pb 1.3388 -3.5872 -6.6534 0
M  V30 39 Pb 0.6846 -2.4921 -7.3099 0
M  V30 40 Pb 2.1888 -2.6800 -6.0108 0
M  V30 41 Pd -3.4390 -6.0823 -3.1401 0
M  V30 42 Pb -4.1742 -5.5498 -2.7092 0
M  V30 43 Pb -2.8749 -6.0544 -2.3153 0
M  V30 44 Pb -2.6758 -6.4865 -3.6412 0
M  V30 45 Pb -3.9833 -6.1126 -3.9719 0
M  V30 46 Ag 4.5153 -3.0216 1.2492 0
M  V30 47 Fe 5.4788 -1.0605 2.1821 0
M  V30 48 Ag 6.3500 0.9348 3.1328 0
M  V30 49 Ag -1.3847 2.4096 -4.5511 0
M  V30 50 Fe 0.0148 0.8125 -5.6154 0
M  V30 51 Ag 1.3599 -0.8623 -6.6288 0
M  V30 52 Ag -3.2912 4.3436 2.7146 0
M  V30 53 Fe -3.4112 3.9000 0.3847 0
M  V30 54 Ag -3.4603 3.4353 -1.9437 0
M  V30 55 Ag -1.4943 4.1931 5.7019 0
M  V30 56 Fe -0.4209 2.5107 6.9825 0
M  V30 57 Ag 0.5742 0.6074 7.9870 0
M  V30 58 Ag -2.8534 2.7164 4.6365 0
M  V30 59 Fe -1.9349 0.8182 5.7337 0
M  V30 60 Ag -0.7388 -0.8959 6.8655 0
M  V30 61 Ag -4.5302 -1.7232 -6.7272 0
M  V30 62 Fe -2.2696 -1.9879 -7.3947 0
M  V30 63 Ag 0.0578 -2.3387 -7.6889 0
M  V30 64 Ag 2.6661 -4.1959 2.5001 0
M  V30 65 Fe 1.9520 -3.4162 4.6273 0
M  V30 66 Ag 1.2385 -2.5467 6.7194 0
M  V30 67 Ag 3.5024 -3.6107 -0.8546 0
M  V30 68 Fe 3.0922 -3.1884 -3.1576 0
M  V30 69 Ag 2.6944 -2.7666 -5.4629 0
M  V30 70 Ag 1.1740 -4.3074 -6.5335 0
M  V30 71 Fe -0.3748 -5.6676 -5.3583 0
M  V30 72 Ag -2.0888 -6.6763 -4.0645 0
M  V30 73 Ag 1.5505 -4.7297 0.5188 0
M  V30 74 Fe -0.4247 -5.3646 -0.6385 0
M  V30 75 Ag -2.4277 -6.0549 -1.7136 0
M  V30 76 Ag 2.5569 -0.8024 7.8570 0
M  V30 77 Fe 4.3056 0.3576 6.7522 0
M  V30 78 Ag 5.8193 1.5919 5.4066 0
M  V30 79 Ag 1.6933 5.8362 0.4355 0
M  V30 80 Fe 0.2077 4.8829 -1.1530 0
M  V30 81 Ag -1.2581 3.9680 -2.7818 0
M  V30 82 Ba -5.4354 -0.3458 -4.7665 0
M  V30 83 Ga -4.6174 0.7999 -4.3102 0
M  V30 84 Ba -3.9698 2.0512 -3.8582 0
M  V30 85 Ba 3.8581 5.1615 1.3232 0
M  V30 86 Ga 4.8758 4.2148 1.8110 0
M  V30 87 Ba 5.8653 3.2643 2.3472 0
M  V30 88 Ba -5.5115 -3.6736 -5.8232 0
M  V30 89 Ga -4.9774 -4.9181 -5.2595 0
M  V30 90 Ba -4.3894 -6.0861 -4.5949 0
M  V30 91 Ba -5.8911 -2.6748 -3.6991 0
M  V30 92 Ga -5.3375 -3.8802 -3.0355 0
M  V30 93 Ba -4.7214 -5.0968 -2.4519 0
M  V30 94 Ba 3.2507 5.8140 3.5692 0
M  V30 95 Ga 4.2612 4.8778 4.1060 0
M  V30 96 Ba 5.2684 3.9161 4.6022 0
M  V30 97 Ba 0.9898 6.6436 2.6870 0
M  V30 98 Ga -0.3183 6.2551 3.2550 0
M  V30 99 Ba -1.6304 5.8835 3.8253 0
M  V30 END ATOM
M  V30 BEGIN BOND
M  V30 1 1 1 2
M  V30 2 1 1 3
M  V30 3 1 1 4
M  V30 4 1 1 5
M  V30 5 1 6 7
M  V30 6 1 6 8
M  V30 7 1 6 9
M  V30 8 1 6 10
M  V30 9 1 11 12
M  V30 10 1 11 13
M  V30 11 1 11 14
M  V30 12 1 11 15
M  V30 13 1 16 17
M  V30 14 1 16 18
M  V30 15 1 16 19
M  V30 16 1 16 20
M  V30 17 1 21 22
M  V30 18 1 21 23
M  V30 19 1 21 24
M  V30 20 1 21 25
M  V30 21 1 26 27
M  V30 22 1 26 28
M  V30 23 1 26 29
M  V30 24 1 26 30
M  V30 25 1 31 32
M  V30 26 1 31 33
M  V30 27 1 31 34
M  V30 28 1 31 35
M  V30 29 1 36 37
M  V30 30 1 36 38
M  V30 31 1 36 39
M  V30 32 1 36 40
M  V30 33 1 41 42
M  V30 34 1 41 43
M  V30 35 1 41 44
M  V30 36 1 41 45
M  V30 37 1 46 47
M  V30 38 1 47 48
M  V30 39 1 49 50
M  V30 40 1 50 51
M  V30 41 1 52 53
M  V30 42 1 53 54
M  V30 43 1 55 56
M  V30 44 1 56 57
M  V30 45 1 58 59
M  V30 46 1 59 60
M  V30 47 1 61 62
M  V30 48 1 62 63
M  V30 49 1 64 65
M  V30 50 1 65 66
M  V30 51 1 67 68
M  V30 52 1 68 69
M  V30 53 1 70 71
M  V30 54 1 71 72
M  V30 55 1 73 74
M  V30 56 1 74 75
M  V30 57 1 76 77
M  V30 58 1 77 78
M  V30 59 1 79 80
M  V30 60 1 80 81
M  V30 61 1 82 83
M  V30 62 1 83 84
M  V30 63 1 85 86
M  V30 64 1 86 87
M  V30 65 1 88 89
M  V30 66 1 89 90
M  V30 67 1 91 92
M  V30 68 1 92 93
M  V30 69 1 94 95
M  V30 70 1 95 96
M  V30 71 1 97 98
M  V30 72 1 98 99
M  V30 73 1 2 46
M  V30 74 1 3 73
M  V30 75 1 4 64
M  V30 76 1 5 67
M  V30 77 1 7 82
M  V30 78 1 8 91
M  V30 79 1 9 61
M  V30 80 1 10 88
M  V30 81 1 12 94
M  V30 82 1 13 79
M  V30 83 1 14 97
M  V30 84 1 15 85
M  V30 85 1 17 99
M  V30 86 1 18 55
M  V30 87 1 19 52
M  V30 88 1 20 58
M  V30 89 1 22 84
M  V30 90 1 23 81
M  V30 91 1 24 54
M  V30 92 1 25 49
M  V30 93 1 27 57
M  V30 94 1 28 76
M  V30 95 1 29 66
M  V30 96 1 30 60
M  V30 97 1 32 48
M  V30 98 1 33 78
M  V30 99 1 34 87
M  V30 100 1 35 96
M  V30 101 1 37 51
M  V30 102 1 38 70
M  V30 103 1 39 63
M  V30 104 1 40 69
M  V30 105 1 42 93
M  V30 106 1 43 75
M  V30 107 1 44 72
M  V30 108 1 45 90
M  V30 END BOND
M  V30 END CTAB
M  END

$$$$
