
     RDKit          3D

  0  0  0  0  0  0  0  0  0  0999 V3000
M  V30 BEGIN CTAB
M  V30 COUNTS 99 108 0 0 0
M  V30 BEGIN ATOM
M  V30 1 Pd 5.4392 3.6325 4.5189 0
M  V30 2 Pb 5.8156 2.7117 4.4370 0
M  V30 3 Pb 5.6064 3.6371 5.5051 0
M  V30 4 Pb 4.9798 4.5132 4.6198 0
M  V30 5 Pb 5.1781 3.5920 3.5526 0
M  V30 6 Pd 1.7046 3.8627 7.4558 0
M  V30 7 Pb 1.4365 3.0165 7.9167 0
M  V30 8 Pb 1.9911 4.6775 6.9527 0
M  V30 9 Pb 2.6190 3.8247 7.8589 0
M  V30 10 Pb 0.8324 3.8480 6.9690 0
M  V30 11 Pd 1.2205 1.5540 -4.8330 0
M  V30 12 Pb 1.5892 0.6428 -5.0102 0
M  V30 13 Pb 0.7937 2.4156 -4.5548 0
M  V30 14 Pb 0.6736 1.4782 -5.6653 0
M  V30 15 Pb 1.8085 1.5831 -4.0317 0
M  V30 16 Pd -3.8413 -2.9177 -7.7173 0
M  V30 17 Pb -4.6191 -2.3310 -7.9300 0
M  V30 18 Pb -3.0661 -3.4921 -7.4442 0
M  V30 19 Pb -4.4621 -3.5167 -7.1952 0
M  V30 20 Pb -3.2310 -2.2278 -8.1001 0
M  V30 21 Pd 2.6376 -2.1706 1.5904 0
M  V30 22 Pb 1.7550 -2.1604 1.1138 0
M  V30 23 Pb 2.2728 -2.7335 2.3315 0
M  V30 24 Pb 2.9762 -1.5101 0.9275 0
M  V30 25 Pb 3.5018 -2.0791 2.0805 0
M  V30 26 Pd -0.1929 -0.2503 5.1769 0
M  V30 27 Pb -0.0311 -0.1449 6.1585 0
M  V30 28 Pb -0.3044 -0.3552 4.1891 0
M  V30 29 Pb -0.5599 0.6811 5.1635 0
M  V30 30 Pb 0.1598 -1.1870 5.1813 0
M  V30 31 Pd -0.5446 -3.3484 -3.2772 0
M  V30 32 Pb -0.4100 -2.8769 -2.4008 0
M  V30 33 Pb -1.3321 -3.7869 -2.8393 0
M  V30 34 Pb 0.2568 -2.9266 -3.7103 0
M  V30 35 Pb -0.7100 -3.8252 -4.1454 0
M  V30 36 Pd -0.4167 2.1443 -0.2242 0
M  V30 37 Pb -1.3949 1.9406 -0.2852 0
M  V30 38 Pb -0.4835 2.8601 -0.9233 0
M  V30 39 Pb 0.5584 2.3548 -0.1184 0
M  V30 40 Pb -0.3519 1.3568 0.3894 0
M  V30 41 Pd -5.9561 -2.5178 -2.7179 0
M  V30 42 Pb -6.0527 -3.1926 -3.4625 0
M  V30 43 Pb -6.6015 -1.9251 -3.1939 0
M  V30 44 Pb -5.2825 -3.1224 -2.2924 0
M  V30 45 Pb -5.7695 -1.7863 -2.0626 0
M  V30 46 Ag 0.3042 1.3371 -6.3014 0
M  V30 47 Fe -1.2343 -0.0976 -7.3994 0
M  V30 48 Ag -2.7963 -1.6486 -8.2858 0
M  V30 49 Ag -2.1210 1.7478 -0.2696 0
M  V30 50 Fe -3.8791 0.2937 -0.9323 0
M  V30 51 Ag -5.5911 -1.1953 -1.6369 0
M  V30 52 Ag 4.9400 3.5256 2.8423 0
M  V30 53 Fe 3.1295 3.0363 1.3802 0
M  V30 54 Ag 1.2841 2.5379 -0.0343 0
M  V30 55 Ag 2.2699 1.5272 -3.4502 0
M  V30 56 Fe 2.7863 0.3215 -1.4777 0
M  V30 57 Ag 3.1942 -0.9631 0.4705 0
M  V30 58 Ag 6.0107 1.9954 4.3477 0
M  V30 59 Fe 5.2217 -0.0516 3.4464 0
M  V30 60 Ag 4.1309 -1.9036 2.4438 0
M  V30 61 Ag -5.2257 -1.9040 -7.9006 0
M  V30 62 Fe -6.5242 -1.3698 -6.0083 0
M  V30 63 Ag -6.9782 -1.5366 -3.7022 0
M  V30 64 Ba 0.2038 3.7776 6.5680 0
M  V30 65 Ga -0.3496 2.6047 5.8650 0
M  V30 66 Ba -0.8285 1.3820 5.1930 0
M  V30 67 Ba 5.6463 3.6461 6.2544 0
M  V30 68 Ga 4.5439 3.7175 7.2322 0
M  V30 69 Ba 3.3362 3.7921 8.0764 0
M  V30 70 Ba -1.8971 -4.1001 -2.4540 0
M  V30 71 Ga -3.3367 -3.8440 -2.2457 0
M  V30 72 Ba -4.7775 -3.6077 -2.0228 0
M  V30 73 Ba -4.9333 -3.9301 -6.7671 0
M  V30 74 Ga -5.5108 -3.8005 -5.4017 0
M  V30 75 Ba -6.0970 -3.6860 -4.0387 0
M  V30 76 Ba 4.5774 5.1311 4.7472 0
M  V30 77 Ga 3.4082 5.2769 5.6309 0
M  V30 78 Ba 2.2596 5.2514 6.5526 0
M  V30 79 Ba 1.9998 -3.0830 2.9361 0
M  V30 80 Ga 1.2052 -2.5412 4.0553 0
M  V30 81 Ba 0.4138 -1.8911 5.1178 0
M  V30 82 Ba 1.2192 2.3637 8.2155 0
M  V30 83 Ga 0.6609 1.1484 7.5923 0
M  V30 84 Ba 0.1089 -0.0233 6.8857 0
M  V30 85 Ba 1.8479 -0.0573 -5.0747 0
M  V30 86 Ga 1.3474 -1.3560 -4.5788 0
M  V30 87 Ba 0.8541 -2.6579 -4.0840 0
M  V30 88 Ba -0.3419 -0.5063 3.4557 0
M  V30 89 Ga -0.3459 0.1771 2.1482 0
M  V30 90 Ba -0.3573 0.7119 0.7735 0
M  V30 91 Ba 1.0904 -2.0623 0.7730 0
M  V30 92 Ga 0.4017 -2.3485 -0.5052 0
M  V30 93 Ba -0.4185 -2.5523 -1.7198 0
M  V30 94 Ba -2.5016 -3.9350 -7.2163 0
M  V30 95 Ga -1.6608 -4.0408 -6.0032 0
M  V30 96 Ba -0.8019 -4.1775 -4.8060 0
M  V30 97 Ba 0.4644 3.0239 -4.2613 0
M  V30 98 Ga -0.0392 3.2465 -2.8891 0
M  V30 99 Ba -0.5058 3.3549 -1.4903 0
M  V30 END ATOM
M  V30 BEGIN BOND
M  V30 1 1 1 2
M  V30 2 1 1 3
M  V30 3 1 1 4
M  V30 4 1 1 5
M  V30 5 1 6 7
M  V30 6 1 6 8
M  V30 7 1 6 9
M  V30 8 1 6 10
M  V30 9 1 11 12
M  V30 10 1 11 13
M  V30 11 1 11 14
M  V30 12 1 11 15
M  V30 13 1 16 17
M  V30 14 1 16 18
M  V30 15 1 16 19
M  V30 16 1 16 20
M  V30 17 1 21 22
M  V30 18 1 21 23
M  V30 19 1 21 24
M  V30 20 1 21 25
M  V30 21 1 26 27
M  V30 22 1 26 28
M  V30 23 1 26 29
M  V30 24 1 26 30
M  V30 25 1 31 32
M  V30 26 1 31 33
M  V30 27 1 31 34
M  V30 28 1 31 35
M  V30 29 1 36 37
M  V30 30 1 36 38
M  V30 31 1 36 39
M  V30 32 1 36 40
M  V30 33 1 41 42
M  V30 34 1 41 43
M  V30 35 1 41 44
M  V30 36 1 41 45
M  V30 37 1 46 47
M  V30 38 1 47 48
M  V30 39 1 49 50
M  V30 40 1 50 51
M  V30 41 1 52 53
M  V30 42 1 53 54
M  V30 43 1 55 56
M  V30 44 1 56 57
M  V30 45 1 58 59
M  V30 46 1 59 60
M  V30 47 1 61 62
M  V30 48 1 62 63
M  V30 49 1 64 65
M  V30 50 1 65 66
M  V30 51 1 67 68
M  V30 52 1 68 69
M  V30 53 1 70 71
M  V30 54 1 71 72
M  V30 55 1 73 74
M  V30 56 1 74 75
M  V30 57 1 76 77
M  V30 58 1 77 78
M  V30 59 1 79 80
M  V30 60 1 80 81
M  V30 61 1 82 83
M  V30 62 1 83 84
M  V30 63 1 85 86
M  V30 64 1 86 87
M  V30 65 1 88 89
M  V30 66 1 89 90
M  V30 67 1 91 92
M  V30 68 1 92 93
M  V30 69 1 94 95
M  V30 70 1 95 96
M  V30 71 1 97 98
M  V30 72 1 98 99
M  V30 73 1 2 58
M  V30 74 1 3 67
M  V30 75 1 4 76
M  V30 76 1 5 52
M  V30 77 1 7 82
M  V30 78 1 8 78
M  V30 79 1 9 69
M  V30 80 1 10 64
M  V30 81 1 12 85
M  V30 82 1 13 97
M  V30 83 1 14 46
M  V30 84 1 15 55
M  V30 85 1 17 61
M  V30 86 1 18 94
M  V30 87 1 19 73
M  V30 88 1 20 48
M  V30 89 1 22 91
M  V30 90 1 23 79
M  V30 91 1 24 57
M  V30 92 1 25 60
M  V30 93 1 27 84
M  V30 94 1 28 88
M  V30 95 1 29 66
M  V30 96 1 30 81
M  V30 97 1 32 93
M  V30 98 1 33 70
M  V30 99 1 34 87
M  V30 100 1 35 96
M  V30 101 1 37 49
M  V30 102 1 38 99
M  V30 103 1 39 54
M  V30 104 1 40 90
M  V30 105 1 42 75
M  V30 106 1 43 63
M  V30 107 1 44 72
M  V30 108 1 45 51
M  V30 END BOND
M  V30 END CTAB
M  END

$$$$
