
     RDKit          3D

  0  0  0  0  0  0  0  0  0  0999 V3000
M  V30 BEGIN CTAB
M  V30 COUNTS 99 108 0 0 0
M  V30 BEGIN ATOM
M  V30 1 Pd 6.9742 -3.2230 -1.7742 0
M  V30 2 Pb 6.8847 -4.0999 -1.2993 0
M  V30 3 Pb 7.3986 -2.7949 -0.9764 0
M  V30 4 Pb 6.4308 -3.5914 -2.5432 0
M  V30 5 Pb 7.0136 -2.3513 -2.2558 0
M  V30 6 Pd -8.9227 1.6731 -0.9280 0
M  V30 7 Pb -9.4388 2.0757 -1.6799 0
M  V30 8 Pb -8.2932 1.3509 -0.2009 0
M  V30 9 Pb -9.2674 2.3669 -0.3039 0
M  V30 10 Pb -8.4912 1.0468 -1.5934 0
M  V30 11 Pd -4.7192 1.9329 -4.5358 0
M  V30 12 Pb -5.4371 2.4476 -4.9989 0
M  V30 13 Pb -4.0231 1.3996 -4.0567 0
M  V30 14 Pb -5.4105 1.2373 -4.2967 0
M  V30 15 Pb -4.0670 2.6829 -4.6334 0
M  V30 16 Pd 1.7493 -2.6474 -3.9133 0
M  V30 17 Pb 0.9317 -2.1372 -3.6469 0
M  V30 18 Pb 2.6115 -3.1460 -4.0955 0
M  V30 19 Pb 2.1820 -1.8178 -4.2558 0
M  V30 20 Pb 1.3619 -3.4759 -3.5118 0
M  V30 21 Pd 2.1114 -6.9769 2.3304 0
M  V30 22 Pb 2.5025 -7.0914 3.2390 0
M  V30 23 Pb 1.7052 -6.8568 1.4246 0
M  V30 24 Pb 2.9859 -7.2134 1.9087 0
M  V30 25 Pb 1.2825 -6.5829 2.7581 0
M  V30 26 Pd 0.7420 5.3257 -0.4720 0
M  V30 27 Pb 0.1239 5.3383 -1.2599 0
M  V30 28 Pb 1.3979 5.3026 0.3029 0
M  V30 29 Pb -0.0054 5.4523 0.1862 0
M  V30 30 Pb 1.5069 5.2372 -1.1012 0
M  V30 31 Pd -4.0702 3.1614 1.9381 0
M  V30 32 Pb -4.7795 2.4416 1.8329 0
M  V30 33 Pb -4.7953 3.8088 2.1524 0
M  V30 34 Pb -3.3500 2.4845 1.7839 0
M  V30 35 Pb -3.3943 3.8994 1.9953 0
M  V30 36 Pd 5.4331 2.7713 2.2447 0
M  V30 37 Pb 4.7389 3.5115 2.2200 0
M  V30 38 Pb 6.0913 2.0163 2.2364 0
M  V30 39 Pb 5.7479 3.0477 1.3431 0
M  V30 40 Pb 5.0559 2.4738 3.1207 0
M  V30 41 Pd 0.6263 -2.2198 5.0593 0
M  V30 42 Pb 0.2090 -3.0794 4.7204 0
M  V30 43 Pb 1.1302 -1.4070 5.3476 0
M  V30 44 Pb 1.0646 -2.7433 5.7841 0
M  V30 45 Pb 0.2328 -1.7071 4.2936 0
M  V30 46 Ag 1.1079 -4.0922 -3.1707 0
M  V30 47 Fe 1.2178 -5.4576 -1.2315 0
M  V30 48 Ag 1.3982 -6.7567 0.7477 0
M  V30 49 Ag 7.6391 -2.4126 -0.3774 0
M  V30 50 Fe 7.1891 -0.5069 0.9686 0
M  V30 51 Ag 6.5703 1.4396 2.1830 0
M  V30 52 Ag -9.3274 2.9225 0.1820 0
M  V30 53 Fe -7.6245 3.9216 1.4694 0
M  V30 54 Ag -5.4226 4.1880 2.2692 0
M  V30 55 Ag -9.6179 2.4004 -2.3230 0
M  V30 56 Fe -8.1696 2.8370 -4.1326 0
M  V30 57 Ag -6.0769 2.7564 -5.2187 0
M  V30 58 Ag -3.5179 0.9930 -3.6816 0
M  V30 59 Fe -1.5821 -0.3796 -3.5972 0
M  V30 60 Ag 0.3383 -1.7600 -3.3861 0
M  V30 61 Ag -2.8220 1.9578 1.6998 0
M  V30 62 Fe -1.4270 0.3172 2.7048 0
M  V30 63 Ag -0.0287 -1.3263 3.7002 0
M  V30 64 Ag 6.7668 -4.7620 -0.9644 0
M  V30 65 Fe 5.2799 -6.1067 0.3101 0
M  V30 66 Ag 3.6592 -7.2839 1.5870 0
M  V30 67 Ag 2.1497 5.1427 -1.4585 0
M  V30 68 Fe 4.2387 4.2693 -0.8019 0
M  V30 69 Ag 5.8171 3.2827 0.6443 0
M  V30 70 Ag 6.8792 -1.7399 -2.6556 0
M  V30 71 Fe 4.9096 -1.0450 -3.7513 0
M  V30 72 Ag 2.6568 -1.2691 -4.4116 0
M  V30 73 Ag -3.5853 3.2559 -4.6064 0
M  V30 74 Fe -1.9296 4.3276 -3.2821 0
M  V30 75 Ag -0.2888 5.3320 -1.8882 0
M  V30 76 Ag 2.7077 -7.0396 3.9500 0
M  V30 77 Fe 2.3043 -5.3290 5.5197 0
M  V30 78 Ag 1.4324 -3.2445 6.1880 0
M  V30 79 Ag 4.7114 2.2522 3.7480 0
M  V30 80 Fe 3.1481 0.7500 4.7146 0
M  V30 81 Ag 1.5664 -0.8243 5.5235 0
M  V30 82 Ba 6.0051 -3.8518 -3.1181 0
M  V30 83 Ga 4.6235 -3.6623 -3.6445 0
M  V30 84 Ba 3.2594 -3.5249 -4.2292 0
M  V30 85 Ba -8.1638 0.5958 -2.1112 0
M  V30 86 Ga -7.0448 0.6845 -3.0892 0
M  V30 87 Ba -5.9344 0.7314 -4.0801 0
M  V30 88 Ba 0.6694 -6.2565 3.0739 0
M  V30 89 Ga 0.3256 -4.9827 3.7719 0
M  V30 90 Ba -0.0958 -3.7361 4.4762 0
M  V30 91 Ba 1.8782 5.3297 0.8976 0
M  V30 92 Ga 3.0550 4.6426 1.5069 0
M  V30 93 Ba 4.2244 4.0768 2.2421 0
M  V30 94 Ba -7.8081 1.1111 0.3391 0
M  V30 95 Ga -6.5570 1.5545 1.0245 0
M  V30 96 Ba -5.3105 1.8928 1.7751 0
M  V30 97 Ba -0.5147 5.5881 0.7254 0
M  V30 98 Ga -1.7173 4.9893 1.3438 0
M  V30 99 Ba -2.9234 4.4846 2.0353 0
M  V30 END ATOM
M  V30 BEGIN BOND
M  V30 1 1 1 2
M  V30 2 1 1 3
M  V30 3 1 1 4
M  V30 4 1 1 5
M  V30 5 1 6 7
M  V30 6 1 6 8
M  V30 7 1 6 9
M  V30 8 1 6 10
M  V30 9 1 11 12
M  V30 10 1 11 13
M  V30 11 1 11 14
M  V30 12 1 11 15
M  V30 13 1 16 17
M  V30 14 1 16 18
M  V30 15 1 16 19
M  V30 16 1 16 20
M  V30 17 1 21 22
M  V30 18 1 21 23
M  V30 19 1 21 24
M  V30 20 1 21 25
M  V30 21 1 26 27
M  V30 22 1 26 28
M  V30 23 1 26 29
M  V30 24 1 26 30
M  V30 25 1 31 32
M  V30 26 1 31 33
M  V30 27 1 31 34
M  V30 28 1 31 35
M  V30 29 1 36 37
M  V30 30 1 36 38
M  V30 31 1 36 39
M  V30 32 1 36 40
M  V30 33 1 41 42
M  V30 34 1 41 43
M  V30 35 1 41 44
M  V30 36 1 41 45
M  V30 37 1 46 47
M  V30 38 1 47 48
M  V30 39 1 49 50
M  V30 40 1 50 51
M  V30 41 1 52 53
M  V30 42 1 53 54
M  V30 43 1 55 56
M  V30 44 1 56 57
M  V30 45 1 58 59
M  V30 46 1 59 60
M  V30 47 1 61 62
M  V30 48 1 62 63
M  V30 49 1 64 65
M  V30 50 1 65 66
M  V30 51 1 67 68
M  V30 52 1 68 69
M  V30 53 1 70 71
M  V30 54 1 71 72
M  V30 55 1 73 74
M  V30 56 1 74 75
M  V30 57 1 76 77
M  V30 58 1 77 78
M  V30 59 1 79 80
M  V30 60 1 80 81
M  V30 61 1 82 83
M  V30 62 1 83 84
M  V30 63 1 85 86
M  V30 64 1 86 87
M  V30 65 1 88 89
M  V30 66 1 89 90
M  V30 67 1 91 92
M  V30 68 1 92 93
M  V30 69 1 94 95
M  V30 70 1 95 96
M  V30 71 1 97 98
M  V30 72 1 98 99
M  V30 73 1 2 64
M  V30 74 1 3 49
M  V30 75 1 4 82
M  V30 76 1 5 70
M  V30 77 1 7 55
M  V30 78 1 8 94
M  V30 79 1 9 52
M  V30 80 1 10 85
M  V30 81 1 12 57
M  V30 82 1 13 58
M  V30 83 1 14 87
M  V30 84 1 15 73
M  V30 85 1 17 60
M  V30 86 1 18 84
M  V30 87 1 19 72
M  V30 88 1 20 46
M  V30 89 1 22 76
M  V30 90 1 23 48
M  V30 91 1 24 66
M  V30 92 1 25 88
M  V30 93 1 27 75
M  V30 94 1 28 91
M  V30 95 1 29 97
M  V30 96 1 30 67
M  V30 97 1 32 96
M  V30 98 1 33 54
M  V30 99 1 34 61
M  V30 100 1 35 99
M  V30 101 1 37 93
M  V30 102 1 38 51
M  V30 103 1 39 69
M  V30 104 1 40 79
M  V30 105 1 42 90
M  V30 106 1 43 81
M  V30 107 1 44 78
M  V30 108 1 45 63
M  V30 END BOND
M  V30 END CTAB
M  END

$$$$
