
     RDKit          3D

  0  0  0  0  0  0  0  0  0  0999 V3000
M  V30 BEGIN CTAB
M  V30 COUNTS 99 108 0 0 0
M  V30 BEGIN ATOM
M  V30 1 Pd -4.1416 -1.5765 0.3841 0
M  V30 2 Pb -4.3030 -0.8905 1.0946 0
M  V30 3 Pb -4.8066 -1.0880 -0.1913 0
M  V30 4 Pb -3.5929 -2.1155 1.0284 0
M  V30 5 Pb -3.9174 -2.2569 -0.3199 0
M  V30 6 Pd 0.5284 -4.6970 0.9394 0
M  V30 7 Pb 1.3973 -4.8115 0.4378 0
M  V30 8 Pb 0.1812 -4.1517 0.1811 0
M  V30 9 Pb -0.2968 -4.4964 1.4673 0
M  V30 10 Pb 0.9335 -5.2168 1.6936 0
M  V30 11 Pd 5.0714 -1.6495 -0.2477 0
M  V30 12 Pb 5.2744 -0.6931 -0.0457 0
M  V30 13 Pb 4.4303 -1.3417 -0.9458 0
M  V30 14 Pb 5.6683 -1.9842 0.4826 0
M  V30 15 Pb 4.7569 -2.5944 -0.4097 0
M  V30 16 Pd -0.3881 2.4775 5.2764 0
M  V30 17 Pb -0.4629 1.5770 5.6990 0
M  V30 18 Pb -0.2751 3.3389 4.7846 0
M  V30 19 Pb 0.5953 2.4260 5.4491 0
M  V30 20 Pb -1.3508 2.4308 5.0145 0
M  V30 21 Pd 2.5463 1.9221 -2.4974 0
M  V30 22 Pb 2.0181 1.7575 -3.3278 0
M  V30 23 Pb 2.4861 2.9122 -2.6454 0
M  V30 24 Pb 3.1647 2.0633 -1.7229 0
M  V30 25 Pb 2.5541 0.9317 -2.3282 0
M  V30 26 Pd 3.8855 -3.1738 4.6543 0
M  V30 27 Pb 4.0944 -2.2241 4.8901 0
M  V30 28 Pb 3.0295 -3.0565 5.1536 0
M  V30 29 Pb 4.7384 -3.2396 4.1336 0
M  V30 30 Pb 3.5994 -4.0996 4.4032 0
M  V30 31 Pd -5.4028 2.9393 -2.9971 0
M  V30 32 Pb -5.3526 3.5629 -2.2176 0
M  V30 33 Pb -5.4031 2.3044 -3.7624 0
M  V30 34 Pb -4.8855 3.6025 -3.5376 0
M  V30 35 Pb -5.8486 2.2193 -2.4619 0
M  V30 36 Pd -0.7561 -1.9673 -3.9153 0
M  V30 37 Pb -1.5627 -1.8470 -4.4841 0
M  V30 38 Pb 0.0595 -2.0219 -3.3354 0
M  V30 39 Pb -1.2734 -2.6302 -3.3692 0
M  V30 40 Pb -0.3174 -1.2392 -4.4374 0
M  V30 41 Pd -1.2801 5.7025 -1.5618 0
M  V30 42 Pb -0.9061 5.8049 -0.6410 0
M  V30 43 Pb -1.6882 5.6251 -2.4714 0
M  V30 44 Pb -2.2014 5.6750 -1.1697 0
M  V30 45 Pb -0.3558 5.6983 -1.9526 0
M  V30 46 Ag -0.4400 0.8765 5.9576 0
M  V30 47 Fe 0.8688 -1.0974 5.8404 0
M  V30 48 Ag 2.3939 -2.8823 5.5062 0
M  V30 49 Ag -0.1717 3.9535 4.3701 0
M  V30 50 Fe -0.3977 4.9632 2.2339 0
M  V30 51 Ag -0.6649 5.8867 0.0636 0
M  V30 52 Ag 1.3248 2.2748 5.5343 0
M  V30 53 Fe 2.8735 0.4837 5.3472 0
M  V30 54 Ag 4.1534 -1.4980 5.0705 0
M  V30 55 Ag -5.3311 1.7733 -4.2773 0
M  V30 56 Fe -3.8825 -0.0261 -4.7840 0
M  V30 57 Ag -2.1748 -1.6602 -4.8621 0
M  V30 58 Ag 0.1018 -3.6807 -0.3867 0
M  V30 59 Fe 1.7006 -2.2059 -1.2948 0
M  V30 60 Ag 3.8405 -1.2208 -1.3802 0
M  V30 61 Ag -4.3853 -0.3632 1.6225 0
M  V30 62 Fe -3.3113 1.0232 3.2238 0
M  V30 63 Ag -2.0470 2.3147 4.7641 0
M  V30 64 Ba -5.2625 4.0492 -1.6543 0
M  V30 65 Ga -4.0963 4.8547 -1.2423 0
M  V30 66 Ba -2.8948 5.6328 -0.8825 0
M  V30 67 Ba -5.3859 -0.7370 -0.5281 0
M  V30 68 Ga -5.7234 0.4646 -1.3247 0
M  V30 69 Ba -6.1698 1.6307 -2.1209 0
M  V30 70 Ba 5.3242 0.0423 0.0852 0
M  V30 71 Ga 4.5317 1.1346 -0.5101 0
M  V30 72 Ba 3.6774 2.1344 -1.1783 0
M  V30 73 Ba -3.6926 -2.7998 -0.7938 0
M  V30 74 Ga -2.7097 -2.9364 -1.8929 0
M  V30 75 Ba -1.7332 -3.0946 -2.9948 0
M  V30 76 Ba 1.2994 -5.5957 2.2300 0
M  V30 77 Ga 2.3091 -5.2074 3.2362 0
M  V30 78 Ba 3.3151 -4.7722 4.2268 0
M  V30 79 Ba 2.4243 3.6549 -2.7518 0
M  V30 80 Ga 1.3776 4.6685 -2.4950 0
M  V30 81 Ba 0.3393 5.6921 -2.2435 0
M  V30 82 Ba 2.0602 -4.8936 0.0755 0
M  V30 83 Ga 3.2660 -4.0722 -0.2150 0
M  V30 84 Ba 4.4946 -3.2960 -0.5335 0
M  V30 85 Ba -4.4531 4.0767 -3.9257 0
M  V30 86 Ga -3.2443 4.8393 -3.5614 0
M  V30 87 Ba -2.0405 5.5753 -3.1317 0
M  V30 88 Ba 2.5357 0.1891 -2.1935 0
M  V30 89 Ga 1.6204 -0.9183 -2.5514 0
M  V30 90 Ba 0.6893 -2.0076 -2.9234 0
M  V30 91 Ba -3.2547 -2.5531 1.5402 0
M  V30 92 Ga -2.0651 -3.4189 1.6753 0
M  V30 93 Ba -0.8946 -4.2984 1.8749 0
M  V30 94 Ba 1.6707 1.5952 -3.9701 0
M  V30 95 Ga 0.8165 0.4788 -4.4072 0
M  V30 96 Ba -0.0353 -0.6533 -4.8069 0
M  V30 97 Ba 6.0805 -2.2804 1.0361 0
M  V30 98 Ga 5.7494 -2.7643 2.3918 0
M  V30 99 Ba 5.3795 -3.2377 3.7411 0
M  V30 END ATOM
M  V30 BEGIN BOND
M  V30 1 1 1 2
M  V30 2 1 1 3
M  V30 3 1 1 4
M  V30 4 1 1 5
M  V30 5 1 6 7
M  V30 6 1 6 8
M  V30 7 1 6 9
M  V30 8 1 6 10
M  V30 9 1 11 12
M  V30 10 1 11 13
M  V30 11 1 11 14
M  V30 12 1 11 15
M  V30 13 1 16 17
M  V30 14 1 16 18
M  V30 15 1 16 19
M  V30 16 1 16 20
M  V30 17 1 21 22
M  V30 18 1 21 23
M  V30 19 1 21 24
M  V30 20 1 21 25
M  V30 21 1 26 27
M  V30 22 1 26 28
M  V30 23 1 26 29
M  V30 24 1 26 30
M  V30 25 1 31 32
M  V30 26 1 31 33
M  V30 27 1 31 34
M  V30 28 1 31 35
M  V30 29 1 36 37
M  V30 30 1 36 38
M  V30 31 1 36 39
M  V30 32 1 36 40
M  V30 33 1 41 42
M  V30 34 1 41 43
M  V30 35 1 41 44
M  V30 36 1 41 45
M  V30 37 1 46 47
M  V30 38 1 47 48
M  V30 39 1 49 50
M  V30 40 1 50 51
M  V30 41 1 52 53
M  V30 42 1 53 54
M  V30 43 1 55 56
M  V30 44 1 56 57
M  V30 45 1 58 59
M  V30 46 1 59 60
M  V30 47 1 61 62
M  V30 48 1 62 63
M  V30 49 1 64 65
M  V30 50 1 65 66
M  V30 51 1 67 68
M  V30 52 1 68 69
M  V30 53 1 70 71
M  V30 54 1 71 72
M  V30 55 1 73 74
M  V30 56 1 74 75
M  V30 57 1 76 77
M  V30 58 1 77 78
M  V30 59 1 79 80
M  V30 60 1 80 81
M  V30 61 1 82 83
M  V30 62 1 83 84
M  V30 63 1 85 86
M  V30 64 1 86 87
M  V30 65 1 88 89
M  V30 66 1 89 90
M  V30 67 1 91 92
M  V30 68 1 92 93
M  V30 69 1 94 95
M  V30 70 1 95 96
M  V30 71 1 97 98
M  V30 72 1 98 99
M  V30 73 1 2 61
M  V30 74 1 3 67
M  V30 75 1 4 91
M  V30 76 1 5 73
M  V30 77 1 7 82
M  V30 78 1 8 58
M  V30 79 1 9 93
M  V30 80 1 10 76
M  V30 81 1 12 70
M  V30 82 1 13 60
M  V30 83 1 14 97
M  V30 84 1 15 84
M  V30 85 1 17 46
M  V30 86 1 18 49
M  V30 87 1 19 52
M  V30 88 1 20 63
M  V30 89 1 22 94
M  V30 90 1 23 79
M  V30 91 1 24 72
M  V30 92 1 25 88
M  V30 93 1 27 54
M  V30 94 1 28 48
M  V30 95 1 29 99
M  V30 96 1 30 78
M  V30 97 1 32 64
M  V30 98 1 33 55
M  V30 99 1 34 85
M  V30 100 1 35 69
M  V30 101 1 37 57
M  V30 102 1 38 90
M  V30 103 1 39 75
M  V30 104 1 40 96
M  V30 105 1 42 51
M  V30 106 1 43 87
M  V30 107 1 44 66
M  V30 108 1 45 81
M  V30 END BOND
M  V30 END CTAB
M  END

$$$$
