
     RDKit          3D

  0  0  0  0  0  0  0  0  0  0999 V3000
M  V30 BEGIN CTAB
M  V30 COUNTS 99 108 0 0 0
M  V30 BEGIN ATOM
M  V30 1 Pd 1.8292 -5.5080 -4.4615 0
M  V30 2 Pb 0.8411 -5.6621 -4.4545 0
M  V30 3 Pb 1.7122 -4.7434 -5.0946 0
M  V30 4 Pb 1.9583 -6.3250 -3.9120 0
M  V30 5 Pb 2.8206 -5.3005 -4.3703 0
M  V30 6 Pd -1.1318 1.2443 -6.0059 0
M  V30 7 Pb -1.9141 0.6206 -6.0087 0
M  V30 8 Pb -0.6169 0.5626 -6.5180 0
M  V30 9 Pb -1.5922 1.8763 -5.3591 0
M  V30 10 Pb -0.3379 1.8430 -6.0045 0
M  V30 11 Pd -2.6743 5.8534 5.9503 0
M  V30 12 Pb -3.1440 6.7219 5.8174 0
M  V30 13 Pb -3.5337 5.4635 6.2852 0
M  V30 14 Pb -2.2061 4.9789 6.0750 0
M  V30 15 Pb -1.9648 6.1636 5.3153 0
M  V30 16 Pd -4.5664 5.3512 2.5255 0
M  V30 17 Pb -4.8028 6.2770 2.8090 0
M  V30 18 Pb -5.2618 5.0042 3.1569 0
M  V30 19 Pb -3.6920 5.7022 2.1868 0
M  V30 20 Pb -4.3329 4.4222 2.2363 0
M  V30 21 Pd 4.3674 -1.6599 2.8310 0
M  V30 22 Pb 4.9380 -2.4684 2.9604 0
M  V30 23 Pb 3.8297 -0.8181 2.7549 0
M  V30 24 Pb 4.9942 -1.3648 2.1066 0
M  V30 25 Pb 3.6960 -2.0285 3.4730 0
M  V30 26 Pd -2.5386 -2.5840 -2.7071 0
M  V30 27 Pb -2.1411 -2.7820 -1.7830 0
M  V30 28 Pb -2.8391 -1.6930 -2.4006 0
M  V30 29 Pb -2.9243 -2.3473 -3.5978 0
M  V30 30 Pb -2.2918 -3.4928 -3.0549 0
M  V30 31 Pd -0.8739 -1.0508 3.0500 0
M  V30 32 Pb -0.7861 -0.4235 3.8230 0
M  V30 33 Pb -0.9736 -1.6849 2.2495 0
M  V30 34 Pb -1.4639 -0.3842 2.6189 0
M  V30 35 Pb -0.2548 -1.6813 3.5184 0
M  V30 36 Pd 6.2978 -4.7569 -0.6690 0
M  V30 37 Pb 6.0067 -4.7206 -1.6432 0
M  V30 38 Pb 6.5139 -4.8042 0.3020 0
M  V30 39 Pb 6.4464 -3.7656 -0.6311 0
M  V30 40 Pb 6.0928 -5.7286 -0.6534 0
M  V30 41 Pd -0.6975 3.1734 -0.5607 0
M  V30 42 Pb -0.1153 3.0206 0.2372 0
M  V30 43 Pb -1.4813 2.8003 -0.0642 0
M  V30 44 Pb -1.2527 3.2531 -1.4086 0
M  V30 45 Pb 0.0784 3.5598 -1.0480 0
M  V30 46 Ag 2.1787 -6.8928 -3.4918 0
M  V30 47 Fe 3.9471 -7.1435 -1.9588 0
M  V30 48 Ag 5.7949 -6.4030 -0.7035 0
M  V30 49 Ag -3.0432 -1.0556 -2.0935 0
M  V30 50 Fe -2.7077 -0.0783 0.0164 0
M  V30 51 Ag -1.8850 0.0622 2.2122 0
M  V30 52 Ag -1.8564 4.3215 6.1621 0
M  V30 53 Fe -1.2819 2.1858 5.2981 0
M  V30 54 Ag -0.7327 0.0606 4.3926 0
M  V30 55 Ag 0.2262 2.2976 -5.8524 0
M  V30 56 Fe 0.8480 3.3165 -3.8232 0
M  V30 57 Ag 0.5939 3.7838 -1.5298 0
M  V30 58 Ag 3.4361 -0.1775 2.7455 0
M  V30 59 Fe 1.8889 1.3432 1.7767 0
M  V30 60 Ag 0.3427 2.8667 0.8105 0
M  V30 61 Ag 1.6198 -4.2014 -5.6042 0
M  V30 62 Fe 0.7303 -2.1045 -6.2689 0
M  V30 63 Ag -0.2120 0.0057 -6.8058 0
M  V30 64 Ba 0.1001 -5.7656 -4.3986 0
M  V30 65 Ga -1.0183 -4.9546 -3.8728 0
M  V30 66 Ba -2.1600 -4.1723 -3.3540 0
M  V30 67 Ba 3.1664 -2.3398 3.9026 0
M  V30 68 Ga 1.6952 -2.2360 3.9205 0
M  V30 69 Ba 0.2259 -2.1057 3.9080 0
M  V30 70 Ba 3.5643 -5.1234 -4.3117 0
M  V30 71 Ga 4.6421 -4.9312 -3.2924 0
M  V30 72 Ba 5.8098 -4.7079 -2.3845 0
M  V30 73 Ba -4.1632 3.7257 2.0141 0
M  V30 74 Ga -3.1161 3.1248 1.1659 0
M  V30 75 Ba -2.0671 2.5282 0.3171 0
M  V30 76 Ba -1.5775 6.3492 4.6964 0
M  V30 77 Ga -2.1558 6.2136 3.3381 0
M  V30 78 Ba -2.9901 5.9711 2.1369 0
M  V30 79 Ba 5.3947 -3.0544 3.0473 0
M  V30 80 Ga 6.0311 -3.9638 2.0833 0
M  V30 81 Ba 6.6158 -4.8191 1.0405 0
M  V30 82 Ba -1.8294 -2.9762 -1.1013 0
M  V30 83 Ga -1.4655 -2.4880 0.2733 0
M  V30 84 Ba -1.0241 -2.2120 1.6836 0
M  V30 85 Ba -2.4718 0.1186 -6.0255 0
M  V30 86 Ga -2.8626 -1.0036 -5.1517 0
M  V30 87 Ba -3.2159 -2.1139 -4.2473 0
M  V30 88 Ba 5.4518 -1.2102 1.5292 0
M  V30 89 Ga 6.0154 -2.0821 0.4748 0
M  V30 90 Ba 6.5365 -3.0229 -0.5417 0
M  V30 91 Ba -3.5346 7.3234 5.6189 0
M  V30 92 Ga -4.3024 7.3259 4.3765 0
M  V30 93 Ba -4.9185 6.9498 3.1067 0
M  V30 94 Ba -1.9265 2.3471 -4.8572 0
M  V30 95 Ga -1.7558 2.8012 -3.4431 0
M  V30 96 Ba -1.6765 3.3208 -2.0436 0
M  V30 97 Ba -4.2252 5.1686 6.3329 0
M  V30 98 Ga -5.0577 4.9211 5.1315 0
M  V30 99 Ba -5.6389 4.7927 3.7737 0
M  V30 END ATOM
M  V30 BEGIN BOND
M  V30 1 1 1 2
M  V30 2 1 1 3
M  V30 3 1 1 4
M  V30 4 1 1 5
M  V30 5 1 6 7
M  V30 6 1 6 8
M  V30 7 1 6 9
M  V30 8 1 6 10
M  V30 9 1 11 12
M  V30 10 1 11 13
M  V30 11 1 11 14
M  V30 12 1 11 15
M  V30 13 1 16 17
M  V30 14 1 16 18
M  V30 15 1 16 19
M  V30 16 1 16 20
M  V30 17 1 21 22
M  V30 18 1 21 23
M  V30 19 1 21 24
M  V30 20 1 21 25
M  V30 21 1 26 27
M  V30 22 1 26 28
M  V30 23 1 26 29
M  V30 24 1 26 30
M  V30 25 1 31 32
M  V30 26 1 31 33
M  V30 27 1 31 34
M  V30 28 1 31 35
M  V30 29 1 36 37
M  V30 30 1 36 38
M  V30 31 1 36 39
M  V30 32 1 36 40
M  V30 33 1 41 42
M  V30 34 1 41 43
M  V30 35 1 41 44
M  V30 36 1 41 45
M  V30 37 1 46 47
M  V30 38 1 47 48
M  V30 39 1 49 50
M  V30 40 1 50 51
M  V30 41 1 52 53
M  V30 42 1 53 54
M  V30 43 1 55 56
M  V30 44 1 56 57
M  V30 45 1 58 59
M  V30 46 1 59 60
M  V30 47 1 61 62
M  V30 48 1 62 63
M  V30 49 1 64 65
M  V30 50 1 65 66
M  V30 51 1 67 68
M  V30 52 1 68 69
M  V30 53 1 70 71
M  V30 54 1 71 72
M  V30 55 1 73 74
M  V30 56 1 74 75
M  V30 57 1 76 77
M  V30 58 1 77 78
M  V30 59 1 79 80
M  V30 60 1 80 81
M  V30 61 1 82 83
M  V30 62 1 83 84
M  V30 63 1 85 86
M  V30 64 1 86 87
M  V30 65 1 88 89
M  V30 66 1 89 90
M  V30 67 1 91 92
M  V30 68 1 92 93
M  V30 69 1 94 95
M  V30 70 1 95 96
M  V30 71 1 97 98
M  V30 72 1 98 99
M  V30 73 1 2 64
M  V30 74 1 3 61
M  V30 75 1 4 46
M  V30 76 1 5 70
M  V30 77 1 7 85
M  V30 78 1 8 63
M  V30 79 1 9 94
M  V30 80 1 10 55
M  V30 81 1 12 91
M  V30 82 1 13 97
M  V30 83 1 14 52
M  V30 84 1 15 76
M  V30 85 1 17 93
M  V30 86 1 18 99
M  V30 87 1 19 78
M  V30 88 1 20 73
M  V30 89 1 22 79
M  V30 90 1 23 58
M  V30 91 1 24 88
M  V30 92 1 25 67
M  V30 93 1 27 82
M  V30 94 1 28 49
M  V30 95 1 29 87
M  V30 96 1 30 66
M  V30 97 1 32 54
M  V30 98 1 33 84
M  V30 99 1 34 51
M  V30 100 1 35 69
M  V30 101 1 37 72
M  V30 102 1 38 81
M  V30 103 1 39 90
M  V30 104 1 40 48
M  V30 105 1 42 60
M  V30 106 1 43 75
M  V30 107 1 44 96
M  V30 108 1 45 57
M  V30 END BOND
M  V30 END CTAB
M  END

$$$$
