
     RDKit          3D

  0  0  0  0  0  0  0  0  0  0999 V3000
M  V30 BEGIN CTAB
M  V30 COUNTS 99 108 0 0 0
M  V30 BEGIN ATOM
M  V30 1 Pd -0.1805 -4.9723 -0.1296 0
M  V30 2 Pb 0.5342 -4.6159 0.4753 0
M  V30 3 Pb -0.8568 -5.3259 -0.7815 0
M  V30 4 Pb -0.9191 -4.6642 0.4718 0
M  V30 5 Pb 0.5551 -5.2526 -0.7374 0
M  V30 6 Pd -4.1625 0.5714 -5.8110 0
M  V30 7 Pb -3.8284 0.7615 -4.8895 0
M  V30 8 Pb -4.6560 -0.2402 -5.4610 0
M  V30 9 Pb -3.4485 1.1440 -6.2037 0
M  V30 10 Pb -4.4616 0.3689 -6.7385 0
M  V30 11 Pd 3.8870 4.3654 4.0201 0
M  V30 12 Pb 3.8695 4.2982 5.0103 0
M  V30 13 Pb 3.9586 4.4951 3.0278 0
M  V30 14 Pb 3.2866 5.1600 4.0976 0
M  V30 15 Pb 4.4275 3.5017 3.9822 0
M  V30 16 Pd -1.4746 4.7677 3.7998 0
M  V30 17 Pb -0.7107 5.3605 4.0629 0
M  V30 18 Pb -1.5348 4.3601 4.7127 0
M  V30 19 Pb -1.4035 5.1518 2.8815 0
M  V30 20 Pb -2.2541 4.2050 3.5214 0
M  V30 21 Pd 1.2255 3.4653 -0.8619 0
M  V30 22 Pb 0.3938 2.9802 -1.1297 0
M  V30 23 Pb 2.0527 3.9279 -0.5414 0
M  V30 24 Pb 0.6474 4.1802 -0.4667 0
M  V30 25 Pb 1.8015 2.7973 -1.3372 0
M  V30 26 Pd -2.9543 -0.0665 5.1517 0
M  V30 27 Pb -2.6826 0.7052 5.7303 0
M  V30 28 Pb -2.4281 -0.7024 5.7136 0
M  V30 29 Pb -3.1771 -0.8315 4.5481 0
M  V30 30 Pb -3.4274 0.5757 4.5505 0
M  V30 31 Pd 3.9308 -1.2584 5.6314 0
M  V30 32 Pb 3.8316 -1.7833 4.7859 0
M  V30 33 Pb 3.2427 -1.8314 6.0681 0
M  V30 34 Pb 4.4981 -0.5572 5.1595 0
M  V30 35 Pb 4.0074 -0.7474 6.4793 0
M  V30 36 Pd 2.2051 -2.1794 -6.1137 0
M  V30 37 Pb 2.6366 -1.5042 -5.5138 0
M  V30 38 Pb 1.7357 -2.9148 -6.6114 0
M  V30 39 Pb 1.7348 -1.4253 -6.5771 0
M  V30 40 Pb 2.6251 -2.9130 -5.5914 0
M  V30 41 Pd -2.5255 -4.6472 -5.6193 0
M  V30 42 Pb -3.3554 -4.1448 -5.3121 0
M  V30 43 Pb -2.3892 -5.0179 -4.6921 0
M  V30 44 Pb -1.6545 -4.9826 -5.9825 0
M  V30 45 Pb -2.7499 -4.4152 -6.5592 0
M  V30 46 Ag -3.5668 0.8886 -4.1998 0
M  V30 47 Fe -1.8913 1.7683 -2.7666 0
M  V30 48 Ag -0.2494 2.6271 -1.2827 0
M  V30 49 Ag 1.1414 -4.3751 0.8483 0
M  V30 50 Fe 2.3761 -3.2576 2.5433 0
M  V30 51 Ag 3.7515 -2.1928 4.1626 0
M  V30 52 Ag 2.2529 2.3402 -1.7282 0
M  V30 53 Fe 2.5948 0.6584 -3.3728 0
M  V30 54 Ag 2.9322 -1.0247 -5.0169 0
M  V30 55 Ag -4.5646 0.0546 -7.3989 0
M  V30 56 Fe -3.9223 -2.1416 -7.9270 0
M  V30 57 Ag -2.9862 -4.1778 -7.2200 0
M  V30 58 Ag 3.8855 4.1391 5.7321 0
M  V30 59 Fe 3.9759 2.0990 6.8984 0
M  V30 60 Ag 4.0321 -0.2483 7.0229 0
M  V30 61 Ag -2.8123 1.3701 -6.5233 0
M  V30 62 Fe -0.6455 0.4332 -6.7831 0
M  V30 63 Ag 1.3760 -0.8137 -6.8297 0
M  V30 64 Ag -1.4914 -4.4288 0.8975 0
M  V30 65 Fe -2.4102 -2.9322 2.4972 0
M  V30 66 Ag -3.2984 -1.4199 4.0994 0
M  V30 67 Ag 1.1166 -5.3877 -1.2064 0
M  V30 68 Fe 2.1345 -4.5773 -3.1824 0
M  V30 69 Ag 2.8364 -3.4757 -5.1548 0
M  V30 70 Ag -1.9807 -1.1818 6.0740 0
M  V30 71 Fe 0.2873 -1.8178 6.3469 0
M  V30 72 Ag 2.6353 -2.1457 6.3659 0
M  V30 73 Ba -1.3214 5.4470 2.1991 0
M  V30 74 Ga -0.5585 5.0725 0.9944 0
M  V30 75 Ba 0.1930 4.7272 -0.2260 0
M  V30 76 Ba -1.6025 4.0226 5.3809 0
M  V30 77 Ga -2.0302 2.6663 5.7825 0
M  V30 78 Ba -2.4644 1.2990 6.1371 0
M  V30 79 Ba 4.8468 2.8567 3.9609 0
M  V30 80 Ga 4.8190 1.4259 4.4053 0
M  V30 81 Ba 4.9072 -0.0185 4.7951 0
M  V30 82 Ba -4.9403 -0.9046 -5.2110 0
M  V30 83 Ga -4.4424 -2.3162 -5.1660 0
M  V30 84 Ba -3.9730 -3.7370 -5.1061 0
M  V30 85 Ba -2.8463 3.7857 3.3278 0
M  V30 86 Ga -3.3141 2.4364 3.6959 0
M  V30 87 Ba -3.7390 1.0817 4.0950 0
M  V30 88 Ba 2.8016 5.7206 4.2061 0
M  V30 89 Ga 1.3268 5.7853 4.2069 0
M  V30 90 Ba -0.1485 5.8391 4.2069 0
M  V30 91 Ba 1.4370 -3.5553 -6.8797 0
M  V30 92 Ga 0.2102 -4.3469 -6.6240 0
M  V30 93 Ba -1.0218 -5.1291 -6.3642 0
M  V30 94 Ba -1.3562 -5.6173 -1.2646 0
M  V30 95 Ga -1.8207 -5.4236 -2.6588 0
M  V30 96 Ba -2.3999 -5.3712 -4.0217 0
M  V30 97 Ba 4.0498 4.6407 2.2943 0
M  V30 98 Ga 3.3425 4.4312 1.0141 0
M  V30 99 Ba 2.6837 4.2519 -0.2964 0
M  V30 END ATOM
M  V30 BEGIN BOND
M  V30 1 1 1 2
M  V30 2 1 1 3
M  V30 3 1 1 4
M  V30 4 1 1 5
M  V30 5 1 6 7
M  V30 6 1 6 8
M  V30 7 1 6 9
M  V30 8 1 6 10
M  V30 9 1 11 12
M  V30 10 1 11 13
M  V30 11 1 11 14
M  V30 12 1 11 15
M  V30 13 1 16 17
M  V30 14 1 16 18
M  V30 15 1 16 19
M  V30 16 1 16 20
M  V30 17 1 21 22
M  V30 18 1 21 23
M  V30 19 1 21 24
M  V30 20 1 21 25
M  V30 21 1 26 27
M  V30 22 1 26 28
M  V30 23 1 26 29
M  V30 24 1 26 30
M  V30 25 1 31 32
M  V30 26 1 31 33
M  V30 27 1 31 34
M  V30 28 1 31 35
M  V30 29 1 36 37
M  V30 30 1 36 38
M  V30 31 1 36 39
M  V30 32 1 36 40
M  V30 33 1 41 42
M  V30 34 1 41 43
M  V30 35 1 41 44
M  V30 36 1 41 45
M  V30 37 1 46 47
M  V30 38 1 47 48
M  V30 39 1 49 50
M  V30 40 1 50 51
M  V30 41 1 52 53
M  V30 42 1 53 54
M  V30 43 1 55 56
M  V30 44 1 56 57
M  V30 45 1 58 59
M  V30 46 1 59 60
M  V30 47 1 61 62
M  V30 48 1 62 63
M  V30 49 1 64 65
M  V30 50 1 65 66
M  V30 51 1 67 68
M  V30 52 1 68 69
M  V30 53 1 70 71
M  V30 54 1 71 72
M  V30 55 1 73 74
M  V30 56 1 74 75
M  V30 57 1 76 77
M  V30 58 1 77 78
M  V30 59 1 79 80
M  V30 60 1 80 81
M  V30 61 1 82 83
M  V30 62 1 83 84
M  V30 63 1 85 86
M  V30 64 1 86 87
M  V30 65 1 88 89
M  V30 66 1 89 90
M  V30 67 1 91 92
M  V30 68 1 92 93
M  V30 69 1 94 95
M  V30 70 1 95 96
M  V30 71 1 97 98
M  V30 72 1 98 99
M  V30 73 1 2 49
M  V30 74 1 3 94
M  V30 75 1 4 64
M  V30 76 1 5 67
M  V30 77 1 7 46
M  V30 78 1 8 82
M  V30 79 1 9 61
M  V30 80 1 10 55
M  V30 81 1 12 58
M  V30 82 1 13 97
M  V30 83 1 14 88
M  V30 84 1 15 79
M  V30 85 1 17 90
M  V30 86 1 18 76
M  V30 87 1 19 73
M  V30 88 1 20 85
M  V30 89 1 22 48
M  V30 90 1 23 99
M  V30 91 1 24 75
M  V30 92 1 25 52
M  V30 93 1 27 78
M  V30 94 1 28 70
M  V30 95 1 29 66
M  V30 96 1 30 87
M  V30 97 1 32 51
M  V30 98 1 33 72
M  V30 99 1 34 81
M  V30 100 1 35 60
M  V30 101 1 37 54
M  V30 102 1 38 91
M  V30 103 1 39 63
M  V30 104 1 40 69
M  V30 105 1 42 84
M  V30 106 1 43 96
M  V30 107 1 44 93
M  V30 108 1 45 57
M  V30 END BOND
M  V30 END CTAB
M  END

$$$$
