
     RDKit          3D

  0  0  0  0  0  0  0  0  0  0999 V3000
M  V30 BEGIN CTAB
M  V30 COUNTS 99 108 0 0 0
M  V30 BEGIN ATOM
M  V30 1 Pd -0.1078 3.9547 2.0072 0
M  V30 2 Pb -0.2895 4.4261 1.1418 0
M  V30 3 Pb 0.7392 4.4688 2.1304 0
M  V30 4 Pb -0.9886 3.4929 1.9342 0
M  V30 5 Pb 0.1033 3.4420 2.8417 0
M  V30 6 Pd -5.1247 -2.1030 2.6757 0
M  V30 7 Pb -5.3761 -3.0655 2.7775 0
M  V30 8 Pb -4.1840 -2.3579 2.9118 0
M  V30 9 Pb -4.8594 -1.1538 2.5241 0
M  V30 10 Pb -6.0495 -1.8497 2.3872 0
M  V30 11 Pd -2.8437 -5.2037 0.0822 0
M  V30 12 Pb -2.2593 -4.6983 -0.5540 0
M  V30 13 Pb -2.2938 -4.8963 0.8557 0
M  V30 14 Pb -3.5040 -5.3534 -0.6486 0
M  V30 15 Pb -3.4933 -5.5969 0.7304 0
M  V30 16 Pd -2.5876 2.9137 -2.9797 0
M  V30 17 Pb -3.4108 3.1234 -2.4433 0
M  V30 18 Pb -1.7902 2.6508 -3.5292 0
M  V30 19 Pb -3.1299 2.2839 -3.5312 0
M  V30 20 Pb -2.0585 3.5959 -2.4659 0
M  V30 21 Pd 2.4475 -3.5146 -0.7607 0
M  V30 22 Pb 2.1363 -3.3016 0.1850 0
M  V30 23 Pb 2.8200 -3.5693 -1.6823 0
M  V30 24 Pb 1.5369 -3.3439 -1.1339 0
M  V30 25 Pb 3.3484 -3.7526 -0.4228 0
M  V30 26 Pd -6.8187 -0.0424 -1.9176 0
M  V30 27 Pb -6.3372 0.1189 -2.7749 0
M  V30 28 Pb -6.6348 0.9081 -1.6532 0
M  V30 29 Pb -6.9051 -1.0026 -2.1769 0
M  V30 30 Pb -7.2797 -0.2340 -1.0476 0
M  V30 31 Pd 6.8742 3.3475 0.9099 0
M  V30 32 Pb 6.9714 3.9363 0.1196 0
M  V30 33 Pb 6.7822 2.8422 1.7711 0
M  V30 34 Pb 7.0426 2.5269 0.3195 0
M  V30 35 Pb 6.5017 4.1250 1.4041 0
M  V30 36 Pd 3.5593 -0.0239 3.8066 0
M  V30 37 Pb 4.2501 0.6478 4.0635 0
M  V30 38 Pb 4.3286 -0.6256 3.6402 0
M  V30 39 Pb 2.7931 0.5752 4.0611 0
M  V30 40 Pb 2.9232 -0.7379 3.4535 0
M  V30 41 Pd 4.6502 0.4866 -3.7393 0
M  V30 42 Pb 3.8216 0.5874 -4.2895 0
M  V30 43 Pb 5.4185 0.4785 -3.0584 0
M  V30 44 Pb 4.8464 1.4345 -3.9451 0
M  V30 45 Pb 4.4981 -0.5046 -3.6852 0
M  V30 46 Ag 6.9533 4.3073 -0.5160 0
M  V30 47 Fe 6.0879 3.6833 -2.6056 0
M  V30 48 Ag 5.0599 2.1336 -4.0367 0
M  V30 49 Ag 1.3744 4.8447 2.2552 0
M  V30 50 Fe 3.7368 4.9013 2.0718 0
M  V30 51 Ag 6.0653 4.6369 1.7204 0
M  V30 52 Ag -1.2346 2.3959 -3.9702 0
M  V30 53 Fe 0.9636 1.5639 -4.3294 0
M  V30 54 Ag 3.1737 0.7423 -4.6348 0
M  V30 55 Ag 4.0013 -3.8434 -0.0933 0
M  V30 56 Fe 4.9394 -2.7229 1.7435 0
M  V30 57 Ag 4.8497 -1.1104 3.4474 0
M  V30 58 Ag -1.6682 3.1837 1.9018 0
M  V30 59 Fe -3.1456 1.3445 2.1483 0
M  V30 60 Ag -4.6898 -0.4422 2.3707 0
M  V30 61 Ag -4.0639 -5.3204 -1.1400 0
M  V30 62 Fe -5.5876 -3.6717 -1.9007 0
M  V30 63 Ag -6.8670 -1.7282 -2.3542 0
M  V30 64 Ba -4.0460 3.2522 -2.0564 0
M  V30 65 Ga -5.2521 2.4465 -1.7553 0
M  V30 66 Ba -6.4447 1.6147 -1.4717 0
M  V30 67 Ba -1.8751 -4.2636 -1.0310 0
M  V30 68 Ga -0.4963 -3.7732 -1.2169 0
M  V30 69 Ba 0.8642 -3.2531 -1.4505 0
M  V30 70 Ba 0.2723 3.0550 3.4639 0
M  V30 71 Ga 1.2626 2.0248 3.8488 0
M  V30 72 Ba 2.2184 0.9953 4.3140 0
M  V30 73 Ba -3.5488 1.8336 -3.9561 0
M  V30 74 Ga -4.7501 1.0240 -3.7037 0
M  V30 75 Ba -5.9502 0.2292 -3.4036 0
M  V30 76 Ba -6.7226 -1.6211 2.1431 0
M  V30 77 Ga -7.1846 -1.0146 0.8765 0
M  V30 78 Ba -7.6211 -0.4092 -0.3997 0
M  V30 79 Ba 6.7061 2.6050 2.4829 0
M  V30 80 Ga 5.7665 1.8362 3.3248 0
M  V30 81 Ba 4.8535 1.0698 4.1977 0
M  V30 82 Ba -3.4821 -2.5943 3.0462 0
M  V30 83 Ga -2.6602 -3.5773 2.3139 0
M  V30 84 Ba -1.9911 -4.5783 1.4611 0
M  V30 85 Ba 3.1531 -3.5318 -2.3489 0
M  V30 86 Ga 3.7663 -2.3849 -3.0477 0
M  V30 87 Ba 4.3869 -1.2479 -3.7558 0
M  V30 88 Ba -5.4945 -3.8050 2.8145 0
M  V30 89 Ga -4.8077 -4.8723 2.0666 0
M  V30 90 Ba -4.0158 -5.7903 1.2299 0
M  V30 91 Ba -0.4103 4.7686 0.4832 0
M  V30 92 Ga -1.0561 4.4240 -0.8026 0
M  V30 93 Ba -1.6826 4.1476 -2.1140 0
M  V30 94 Ba 7.1422 1.9179 -0.1507 0
M  V30 95 Ga 6.5159 1.2457 -1.3459 0
M  V30 96 Ba 5.9919 0.4801 -2.5341 0
M  V30 97 Ba 1.8971 -3.1162 0.8914 0
M  V30 98 Ga 2.2258 -2.1785 2.0132 0
M  V30 99 Ba 2.4542 -1.2924 3.1999 0
M  V30 END ATOM
M  V30 BEGIN BOND
M  V30 1 1 1 2
M  V30 2 1 1 3
M  V30 3 1 1 4
M  V30 4 1 1 5
M  V30 5 1 6 7
M  V30 6 1 6 8
M  V30 7 1 6 9
M  V30 8 1 6 10
M  V30 9 1 11 12
M  V30 10 1 11 13
M  V30 11 1 11 14
M  V30 12 1 11 15
M  V30 13 1 16 17
M  V30 14 1 16 18
M  V30 15 1 16 19
M  V30 16 1 16 20
M  V30 17 1 21 22
M  V30 18 1 21 23
M  V30 19 1 21 24
M  V30 20 1 21 25
M  V30 21 1 26 27
M  V30 22 1 26 28
M  V30 23 1 26 29
M  V30 24 1 26 30
M  V30 25 1 31 32
M  V30 26 1 31 33
M  V30 27 1 31 34
M  V30 28 1 31 35
M  V30 29 1 36 37
M  V30 30 1 36 38
M  V30 31 1 36 39
M  V30 32 1 36 40
M  V30 33 1 41 42
M  V30 34 1 41 43
M  V30 35 1 41 44
M  V30 36 1 41 45
M  V30 37 1 46 47
M  V30 38 1 47 48
M  V30 39 1 49 50
M  V30 40 1 50 51
M  V30 41 1 52 53
M  V30 42 1 53 54
M  V30 43 1 55 56
M  V30 44 1 56 57
M  V30 45 1 58 59
M  V30 46 1 59 60
M  V30 47 1 61 62
M  V30 48 1 62 63
M  V30 49 1 64 65
M  V30 50 1 65 66
M  V30 51 1 67 68
M  V30 52 1 68 69
M  V30 53 1 70 71
M  V30 54 1 71 72
M  V30 55 1 73 74
M  V30 56 1 74 75
M  V30 57 1 76 77
M  V30 58 1 77 78
M  V30 59 1 79 80
M  V30 60 1 80 81
M  V30 61 1 82 83
M  V30 62 1 83 84
M  V30 63 1 85 86
M  V30 64 1 86 87
M  V30 65 1 88 89
M  V30 66 1 89 90
M  V30 67 1 91 92
M  V30 68 1 92 93
M  V30 69 1 94 95
M  V30 70 1 95 96
M  V30 71 1 97 98
M  V30 72 1 98 99
M  V30 73 1 2 91
M  V30 74 1 3 49
M  V30 75 1 4 58
M  V30 76 1 5 70
M  V30 77 1 7 88
M  V30 78 1 8 82
M  V30 79 1 9 60
M  V30 80 1 10 76
M  V30 81 1 12 67
M  V30 82 1 13 84
M  V30 83 1 14 61
M  V30 84 1 15 90
M  V30 85 1 17 64
M  V30 86 1 18 52
M  V30 87 1 19 73
M  V30 88 1 20 93
M  V30 89 1 22 97
M  V30 90 1 23 85
M  V30 91 1 24 69
M  V30 92 1 25 55
M  V30 93 1 27 75
M  V30 94 1 28 66
M  V30 95 1 29 63
M  V30 96 1 30 78
M  V30 97 1 32 46
M  V30 98 1 33 79
M  V30 99 1 34 94
M  V30 100 1 35 51
M  V30 101 1 37 81
M  V30 102 1 38 57
M  V30 103 1 39 72
M  V30 104 1 40 99
M  V30 105 1 42 54
M  V30 106 1 43 96
M  V30 107 1 44 48
M  V30 108 1 45 87
M  V30 END BOND
M  V30 END CTAB
M  END

$$$$
