
     RDKit          3D

  0  0  0  0  0  0  0  0  0  0999 V3000
M  V30 BEGIN CTAB
M  V30 COUNTS 99 108 0 0 0
M  V30 BEGIN ATOM
M  V30 1 Pd 5.3959 0.6659 -1.1833 0
M  V30 2 Pb 5.5413 -0.2683 -0.8606 0
M  V30 3 Pb 5.3360 0.3293 -2.1238 0
M  V30 4 Pb 5.5495 1.0141 -0.2574 0
M  V30 5 Pb 5.1798 1.5886 -1.5004 0
M  V30 6 Pd -3.8429 -1.0431 -5.1348 0
M  V30 7 Pb -4.5930 -0.8784 -4.4976 0
M  V30 8 Pb -3.5037 -1.8190 -4.6103 0
M  V30 9 Pb -4.0827 -0.2263 -5.6499 0
M  V30 10 Pb -3.0522 -1.1385 -5.7553 0
M  V30 11 Pd -3.9831 -4.1513 4.7015 0
M  V30 12 Pb -3.4643 -4.7245 4.0653 0
M  V30 13 Pb -4.5981 -3.8083 3.9921 0
M  V30 14 Pb -4.3822 -3.4688 5.3062 0
M  V30 15 Pb -3.2998 -4.3870 5.3893 0
M  V30 16 Pd -1.7172 2.3713 4.6473 0
M  V30 17 Pb -2.4753 1.9559 5.1454 0
M  V30 18 Pb -0.9408 2.7621 4.1511 0
M  V30 19 Pb -2.3664 2.8565 4.0618 0
M  V30 20 Pb -1.0855 1.8460 5.2155 0
M  V30 21 Pd -4.8008 1.7155 -0.2021 0
M  V30 22 Pb -5.1476 1.2199 -1.0022 0
M  V30 23 Pb -5.1682 0.9502 0.3310 0
M  V30 24 Pb -4.5606 2.2556 0.6094 0
M  V30 25 Pb -4.4007 2.4600 -0.7444 0
M  V30 26 Pd 3.4610 0.9206 4.2517 0
M  V30 27 Pb 2.9057 1.6637 3.8725 0
M  V30 28 Pb 4.0086 0.1733 4.6352 0
M  V30 29 Pb 4.2110 1.1738 3.6402 0
M  V30 30 Pb 2.7276 0.7060 4.8943 0
M  V30 31 Pd 3.0750 -4.3625 3.9976 0
M  V30 32 Pb 3.6400 -4.2526 3.1807 0
M  V30 33 Pb 3.7320 -3.7977 4.4977 0
M  V30 34 Pb 2.4963 -4.4641 4.8049 0
M  V30 35 Pb 2.3615 -4.8585 3.4976 0
M  V30 36 Pd 0.3210 4.3922 -5.3192 0
M  V30 37 Pb -0.3159 4.6863 -4.6045 0
M  V30 38 Pb 0.9243 3.9925 -6.0117 0
M  V30 39 Pb -0.4819 4.2199 -5.8835 0
M  V30 40 Pb 1.1171 4.5371 -4.7324 0
M  V30 41 Pd 2.0275 -0.5979 -5.7647 0
M  V30 42 Pb 1.8253 -1.3941 -5.1998 0
M  V30 43 Pb 2.9557 -0.5457 -5.3956 0
M  V30 44 Pb 2.1949 0.2248 -6.3149 0
M  V30 45 Pb 1.1134 -0.7093 -6.1825 0
M  V30 46 Ag 5.6005 -0.9725 -0.6120 0
M  V30 47 Fe 4.8756 -2.5939 0.9633 0
M  V30 48 Ag 4.0805 -4.1329 2.5866 0
M  V30 49 Ag -4.0666 3.0423 -1.0884 0
M  V30 50 Fe -2.4623 3.9565 -2.5883 0
M  V30 51 Ag -0.8511 4.8403 -4.0990 0
M  V30 52 Ag -2.7117 -4.5165 5.8321 0
M  V30 53 Fe -0.3415 -4.5779 5.7678 0
M  V30 54 Ag 1.9935 -4.5586 5.3507 0
M  V30 55 Ag -3.0688 -2.3236 -4.2816 0
M  V30 56 Fe -0.7137 -2.5061 -4.2841 0
M  V30 57 Ag 1.5223 -1.9439 -4.7998 0
M  V30 58 Ag -2.9641 -5.0896 3.6391 0
M  V30 59 Fe -0.6171 -5.2514 3.2916 0
M  V30 60 Ag 1.7578 -5.1847 3.1877 0
M  V30 61 Ag -4.5930 -2.8583 5.6768 0
M  V30 62 Fe -3.9584 -0.5771 5.7490 0
M  V30 63 Ag -3.0117 1.5814 5.5065 0
M  V30 64 Ag -4.1148 0.4144 -6.0267 0
M  V30 65 Fe -2.7650 2.3416 -6.2903 0
M  V30 66 Ag -1.1198 4.0433 -6.2273 0
M  V30 67 Ag 4.9669 2.2649 -1.7429 0
M  V30 68 Fe 3.3816 3.4982 -3.0090 0
M  V30 69 Ag 1.7294 4.6056 -4.3056 0
M  V30 70 Ag -5.0411 -3.4543 3.5011 0
M  V30 71 Fe -5.2648 -1.5715 2.0675 0
M  V30 72 Ag -5.4476 0.3281 0.6502 0
M  V30 73 Ba -5.1525 -0.7112 -4.0300 0
M  V30 74 Ga -5.2794 0.0638 -2.7796 0
M  V30 75 Ba -5.5045 0.8197 -1.5317 0
M  V30 76 Ba -2.8707 3.2109 3.6347 0
M  V30 77 Ga -3.6244 2.9249 2.3961 0
M  V30 78 Ba -4.4284 2.7425 1.1699 0
M  V30 79 Ba -0.3438 3.0373 3.7878 0
M  V30 80 Ga 1.0730 2.6319 3.6858 0
M  V30 81 Ba 2.4887 2.2213 3.5879 0
M  V30 82 Ba -2.4798 -1.1698 -6.2533 0
M  V30 83 Ga -1.0043 -0.9943 -6.3230 0
M  V30 84 Ba 0.4591 -0.8480 -6.5452 0
M  V30 85 Ba -0.6252 1.4268 5.6319 0
M  V30 86 Ga 0.7786 0.9956 5.5157 0
M  V30 87 Ba 2.1834 0.5704 5.3898 0
M  V30 88 Ba 5.7297 1.2863 0.4191 0
M  V30 89 Ga 5.2118 1.3129 1.8008 0
M  V30 90 Ba 4.7834 1.3985 3.2105 0
M  V30 91 Ba 1.3737 3.6476 -6.5061 0
M  V30 92 Ga 1.8502 2.2524 -6.6258 0
M  V30 93 Ba 2.3105 0.8499 -6.7199 0
M  V30 94 Ba 5.3614 0.0819 -2.8321 0
M  V30 95 Ga 4.4633 -0.2111 -3.9657 0
M  V30 96 Ba 3.6700 -0.5378 -5.1662 0
M  V30 97 Ba 4.4092 -0.3901 4.9326 0
M  V30 98 Ga 4.3225 -1.8645 4.8983 0
M  V30 99 Ba 4.2113 -3.3366 4.8456 0
M  V30 END ATOM
M  V30 BEGIN BOND
M  V30 1 1 1 2
M  V30 2 1 1 3
M  V30 3 1 1 4
M  V30 4 1 1 5
M  V30 5 1 6 7
M  V30 6 1 6 8
M  V30 7 1 6 9
M  V30 8 1 6 10
M  V30 9 1 11 12
M  V30 10 1 11 13
M  V30 11 1 11 14
M  V30 12 1 11 15
M  V30 13 1 16 17
M  V30 14 1 16 18
M  V30 15 1 16 19
M  V30 16 1 16 20
M  V30 17 1 21 22
M  V30 18 1 21 23
M  V30 19 1 21 24
M  V30 20 1 21 25
M  V30 21 1 26 27
M  V30 22 1 26 28
M  V30 23 1 26 29
M  V30 24 1 26 30
M  V30 25 1 31 32
M  V30 26 1 31 33
M  V30 27 1 31 34
M  V30 28 1 31 35
M  V30 29 1 36 37
M  V30 30 1 36 38
M  V30 31 1 36 39
M  V30 32 1 36 40
M  V30 33 1 41 42
M  V30 34 1 41 43
M  V30 35 1 41 44
M  V30 36 1 41 45
M  V30 37 1 46 47
M  V30 38 1 47 48
M  V30 39 1 49 50
M  V30 40 1 50 51
M  V30 41 1 52 53
M  V30 42 1 53 54
M  V30 43 1 55 56
M  V30 44 1 56 57
M  V30 45 1 58 59
M  V30 46 1 59 60
M  V30 47 1 61 62
M  V30 48 1 62 63
M  V30 49 1 64 65
M  V30 50 1 65 66
M  V30 51 1 67 68
M  V30 52 1 68 69
M  V30 53 1 70 71
M  V30 54 1 71 72
M  V30 55 1 73 74
M  V30 56 1 74 75
M  V30 57 1 76 77
M  V30 58 1 77 78
M  V30 59 1 79 80
M  V30 60 1 80 81
M  V30 61 1 82 83
M  V30 62 1 83 84
M  V30 63 1 85 86
M  V30 64 1 86 87
M  V30 65 1 88 89
M  V30 66 1 89 90
M  V30 67 1 91 92
M  V30 68 1 92 93
M  V30 69 1 94 95
M  V30 70 1 95 96
M  V30 71 1 97 98
M  V30 72 1 98 99
M  V30 73 1 2 46
M  V30 74 1 3 94
M  V30 75 1 4 88
M  V30 76 1 5 67
M  V30 77 1 7 73
M  V30 78 1 8 55
M  V30 79 1 9 64
M  V30 80 1 10 82
M  V30 81 1 12 58
M  V30 82 1 13 70
M  V30 83 1 14 61
M  V30 84 1 15 52
M  V30 85 1 17 63
M  V30 86 1 18 79
M  V30 87 1 19 76
M  V30 88 1 20 85
M  V30 89 1 22 75
M  V30 90 1 23 72
M  V30 91 1 24 78
M  V30 92 1 25 49
M  V30 93 1 27 81
M  V30 94 1 28 97
M  V30 95 1 29 90
M  V30 96 1 30 87
M  V30 97 1 32 48
M  V30 98 1 33 99
M  V30 99 1 34 54
M  V30 100 1 35 60
M  V30 101 1 37 51
M  V30 102 1 38 91
M  V30 103 1 39 66
M  V30 104 1 40 69
M  V30 105 1 42 57
M  V30 106 1 43 96
M  V30 107 1 44 93
M  V30 108 1 45 84
M  V30 END BOND
M  V30 END CTAB
M  END

$$$$
