
     RDKit          3D

  0  0  0  0  0  0  0  0  0  0999 V3000
M  V30 BEGIN CTAB
M  V30 COUNTS 99 108 0 0 0
M  V30 BEGIN ATOM
M  V30 1 Pd 0.7746 4.0722 -0.1461 0
M  V30 2 Pb 1.5745 4.6669 -0.2256 0
M  V30 3 Pb 1.2851 3.4698 0.4701 0
M  V30 4 Pb 0.2621 4.6537 -0.7744 0
M  V30 5 Pb -0.0023 3.4422 -0.1743 0
M  V30 6 Pd -0.2997 -1.0189 7.9083 0
M  V30 7 Pb -0.3203 -1.8732 7.3879 0
M  V30 8 Pb -0.3049 -0.1211 8.3434 0
M  V30 9 Pb -1.2950 -1.0621 7.9659 0
M  V30 10 Pb 0.6870 -0.9124 7.7691 0
M  V30 11 Pd 4.4867 -3.7239 -2.3260 0
M  V30 12 Pb 4.8220 -3.2037 -3.1090 0
M  V30 13 Pb 4.0617 -4.1934 -1.5543 0
M  V30 14 Pb 4.0064 -4.3716 -2.9128 0
M  V30 15 Pb 4.8865 -3.0097 -1.7485 0
M  V30 16 Pd -2.2952 -3.7397 -4.6826 0
M  V30 17 Pb -1.5622 -4.4165 -4.7067 0
M  V30 18 Pb -2.9688 -2.9983 -4.6759 0
M  V30 19 Pb -2.7115 -4.1995 -3.8937 0
M  V30 20 Pb -1.8851 -3.2792 -5.4692 0
M  V30 21 Pd -2.3040 -4.5603 1.1876 0
M  V30 22 Pb -1.9970 -4.4477 2.1365 0
M  V30 23 Pb -1.3644 -4.8407 0.9853 0
M  V30 24 Pb -2.6304 -4.7598 0.2572 0
M  V30 25 Pb -3.2395 -4.2798 1.4134 0
M  V30 26 Pd -1.5617 3.0827 -6.7639 0
M  V30 27 Pb -2.3655 2.5714 -6.4520 0
M  V30 28 Pb -0.6942 3.5374 -6.9675 0
M  V30 29 Pb -1.7728 3.8495 -6.1638 0
M  V30 30 Pb -1.2967 2.2607 -7.2628 0
M  V30 31 Pd 4.8518 3.3643 -3.2894 0
M  V30 32 Pb 4.6315 4.1167 -2.6648 0
M  V30 33 Pb 4.4424 3.8456 -4.0659 0
M  V30 34 Pb 5.1886 2.8012 -2.5328 0
M  V30 35 Pb 5.0605 2.5893 -3.8841 0
M  V30 36 Pd -4.9384 -0.0193 2.7723 0
M  V30 37 Pb -5.2260 -0.9426 2.5163 0
M  V30 38 Pb -4.5862 0.8817 3.0255 0
M  V30 39 Pb -5.1470 -0.2191 3.7270 0
M  V30 40 Pb -4.6056 0.1759 1.8542 0
M  V30 41 Pd 1.2965 2.6511 5.3479 0
M  V30 42 Pb 0.9295 2.7960 6.2661 0
M  V30 43 Pb 1.6656 2.4713 4.4337 0
M  V30 44 Pb 0.5012 3.1164 4.9640 0
M  V30 45 Pb 1.9909 2.0556 5.7527 0
M  V30 46 Ag -0.3835 -2.4902 6.9646 0
M  V30 47 Fe -1.0600 -3.4375 4.8910 0
M  V30 48 Ag -1.7220 -4.4388 2.8383 0
M  V30 49 Ag -3.3923 -2.3798 -4.7377 0
M  V30 50 Fe -3.2931 -0.1072 -5.4310 0
M  V30 51 Ag -2.9003 2.1134 -6.1863 0
M  V30 52 Ag 5.1542 -2.4049 -1.3909 0
M  V30 53 Fe 5.3516 -0.0425 -1.5711 0
M  V30 54 Ag 5.3995 2.2912 -2.0224 0
M  V30 55 Ag 5.0328 -2.7274 -3.6456 0
M  V30 56 Fe 5.1826 -0.4051 -4.1074 0
M  V30 57 Ag 5.2116 1.9622 -4.2641 0
M  V30 58 Ag -1.6099 -2.8865 -6.0450 0
M  V30 59 Fe -1.2972 -0.7046 -6.9233 0
M  V30 60 Ag -1.1280 1.5832 -7.5289 0
M  V30 61 Ag 3.5551 -4.8191 -3.3055 0
M  V30 62 Fe 1.3220 -4.9838 -4.0870 0
M  V30 63 Ag -0.9575 -4.8559 -4.7291 0
M  V30 64 Ag -2.0404 -1.0665 7.9104 0
M  V30 65 Fe -3.7685 -0.7533 6.3173 0
M  V30 66 Ag -5.1884 -0.3760 4.4563 0
M  V30 67 Ag -0.1497 5.0239 -1.2766 0
M  V30 68 Fe -1.0761 4.8699 -3.4532 0
M  V30 69 Ag -1.8324 4.3836 -5.6465 0
M  V30 70 Ag -0.5892 2.9854 -0.2798 0
M  V30 71 Fe -2.4343 1.6724 0.4331 0
M  V30 72 Ag -4.2602 0.3780 1.2243 0
M  V30 73 Ag -4.2550 1.5372 3.1782 0
M  V30 74 Fe -2.2579 2.5802 3.9265 0
M  V30 75 Ag -0.1580 3.3630 4.7096 0
M  V30 76 Ag -0.0247 3.8736 -7.0149 0
M  V30 77 Fe 2.0763 4.0861 -5.9255 0
M  V30 78 Ag 4.0896 4.1321 -4.6641 0
M  V30 79 Ag 3.6640 -4.5542 -1.0325 0
M  V30 80 Fe 1.5199 -4.8091 -0.0423 0
M  V30 81 Ag -0.6416 -5.0352 0.9165 0
M  V30 82 Ba 2.1876 5.0836 -0.3407 0
M  V30 83 Ga 3.3370 4.8994 -1.2497 0
M  V30 84 Ba 4.4617 4.6648 -2.1779 0
M  V30 85 Ba -3.9527 -4.0844 1.5526 0
M  V30 86 Ga -4.6786 -2.8608 1.9493 0
M  V30 87 Ba -5.4209 -1.6470 2.3459 0
M  V30 88 Ba -3.0337 -4.5763 -3.3265 0
M  V30 89 Ga -2.9329 -4.7133 -1.8556 0
M  V30 90 Ba -2.9534 -4.9603 -0.3960 0
M  V30 91 Ba 1.4100 -0.7554 7.6328 0
M  V30 92 Ga 1.9957 0.3684 6.8729 0
M  V30 93 Ba 2.4260 1.5421 6.0852 0
M  V30 94 Ba -0.2889 0.5855 8.5861 0
M  V30 95 Ga 0.1673 1.7712 7.8429 0
M  V30 96 Ba 0.6596 2.8438 6.9632 0
M  V30 97 Ba 1.6893 3.0144 0.9106 0
M  V30 98 Ga 1.7951 2.6856 2.3470 0
M  V30 99 Ba 1.9625 2.3020 3.7638 0
M  V30 END ATOM
M  V30 BEGIN BOND
M  V30 1 1 1 2
M  V30 2 1 1 3
M  V30 3 1 1 4
M  V30 4 1 1 5
M  V30 5 1 6 7
M  V30 6 1 6 8
M  V30 7 1 6 9
M  V30 8 1 6 10
M  V30 9 1 11 12
M  V30 10 1 11 13
M  V30 11 1 11 14
M  V30 12 1 11 15
M  V30 13 1 16 17
M  V30 14 1 16 18
M  V30 15 1 16 19
M  V30 16 1 16 20
M  V30 17 1 21 22
M  V30 18 1 21 23
M  V30 19 1 21 24
M  V30 20 1 21 25
M  V30 21 1 26 27
M  V30 22 1 26 28
M  V30 23 1 26 29
M  V30 24 1 26 30
M  V30 25 1 31 32
M  V30 26 1 31 33
M  V30 27 1 31 34
M  V30 28 1 31 35
M  V30 29 1 36 37
M  V30 30 1 36 38
M  V30 31 1 36 39
M  V30 32 1 36 40
M  V30 33 1 41 42
M  V30 34 1 41 43
M  V30 35 1 41 44
M  V30 36 1 41 45
M  V30 37 1 46 47
M  V30 38 1 47 48
M  V30 39 1 49 50
M  V30 40 1 50 51
M  V30 41 1 52 53
M  V30 42 1 53 54
M  V30 43 1 55 56
M  V30 44 1 56 57
M  V30 45 1 58 59
M  V30 46 1 59 60
M  V30 47 1 61 62
M  V30 48 1 62 63
M  V30 49 1 64 65
M  V30 50 1 65 66
M  V30 51 1 67 68
M  V30 52 1 68 69
M  V30 53 1 70 71
M  V30 54 1 71 72
M  V30 55 1 73 74
M  V30 56 1 74 75
M  V30 57 1 76 77
M  V30 58 1 77 78
M  V30 59 1 79 80
M  V30 60 1 80 81
M  V30 61 1 82 83
M  V30 62 1 83 84
M  V30 63 1 85 86
M  V30 64 1 86 87
M  V30 65 1 88 89
M  V30 66 1 89 90
M  V30 67 1 91 92
M  V30 68 1 92 93
M  V30 69 1 94 95
M  V30 70 1 95 96
M  V30 71 1 97 98
M  V30 72 1 98 99
M  V30 73 1 2 82
M  V30 74 1 3 97
M  V30 75 1 4 67
M  V30 76 1 5 70
M  V30 77 1 7 46
M  V30 78 1 8 94
M  V30 79 1 9 64
M  V30 80 1 10 91
M  V30 81 1 12 55
M  V30 82 1 13 79
M  V30 83 1 14 61
M  V30 84 1 15 52
M  V30 85 1 17 63
M  V30 86 1 18 49
M  V30 87 1 19 88
M  V30 88 1 20 58
M  V30 89 1 22 48
M  V30 90 1 23 81
M  V30 91 1 24 90
M  V30 92 1 25 85
M  V30 93 1 27 51
M  V30 94 1 28 76
M  V30 95 1 29 69
M  V30 96 1 30 60
M  V30 97 1 32 84
M  V30 98 1 33 78
M  V30 99 1 34 54
M  V30 100 1 35 57
M  V30 101 1 37 87
M  V30 102 1 38 73
M  V30 103 1 39 66
M  V30 104 1 40 72
M  V30 105 1 42 96
M  V30 106 1 43 99
M  V30 107 1 44 75
M  V30 108 1 45 93
M  V30 END BOND
M  V30 END CTAB
M  END

$$$$
