
     RDKit          3D

  0  0  0  0  0  0  0  0  0  0999 V3000
M  V30 BEGIN CTAB
M  V30 COUNTS 99 108 0 0 0
M  V30 BEGIN ATOM
M  V30 1 Pd 0.3258 0.5385 -5.3979 0
M  V30 2 Pb -0.6478 0.7425 -5.4612 0
M  V30 3 Pb 0.4566 1.5283 -5.4498 0
M  V30 4 Pb 0.1425 -0.4340 -5.2365 0
M  V30 5 Pb 1.3140 0.3771 -5.4210 0
M  V30 6 Pd 5.1989 -1.6783 -2.9310 0
M  V30 7 Pb 4.7632 -1.1902 -3.6891 0
M  V30 8 Pb 5.6923 -2.1892 -2.2114 0
M  V30 9 Pb 4.7167 -2.5244 -3.1455 0
M  V30 10 Pb 5.6183 -0.8251 -2.6174 0
M  V30 11 Pd 0.3878 1.1037 4.6136 0
M  V30 12 Pb 1.0351 1.5843 5.2047 0
M  V30 13 Pb 0.7888 0.2087 4.8149 0
M  V30 14 Pb -0.1643 0.6733 3.9018 0
M  V30 15 Pb -0.0736 1.9711 4.4339 0
M  V30 16 Pd 4.9404 -4.2610 2.2237 0
M  V30 17 Pb 4.2519 -4.2448 2.9449 0
M  V30 18 Pb 4.4087 -4.8656 1.6349 0
M  V30 19 Pb 5.4540 -3.5968 2.7611 0
M  V30 20 Pb 5.5863 -4.1401 1.4617 0
M  V30 21 Pd -4.0033 -2.3811 3.0653 0
M  V30 22 Pb -3.2446 -1.8175 2.7485 0
M  V30 23 Pb -4.7881 -2.9422 3.3160 0
M  V30 24 Pb -4.5328 -1.5490 3.2274 0
M  V30 25 Pb -3.5365 -3.2020 2.6931 0
M  V30 26 Pd 4.8315 3.0531 2.9440 0
M  V30 27 Pb 4.3320 3.8122 2.5248 0
M  V30 28 Pb 4.3647 3.1682 3.8254 0
M  V30 29 Pb 5.3256 2.2762 3.3281 0
M  V30 30 Pb 5.2836 2.8930 2.0638 0
M  V30 31 Pd -1.4570 5.8365 -0.7589 0
M  V30 32 Pb -1.6906 5.7882 0.2083 0
M  V30 33 Pb -2.4302 5.8073 -1.0028 0
M  V30 34 Pb -0.5013 5.9136 -0.4719 0
M  V30 35 Pb -1.1647 5.7937 -1.7155 0
M  V30 36 Pd -5.9691 2.4265 -1.8505 0
M  V30 37 Pb -5.6563 2.4882 -2.7920 0
M  V30 38 Pb -6.1878 2.2946 -0.8814 0
M  V30 39 Pb -6.2286 1.4887 -2.0899 0
M  V30 40 Pb -5.7014 3.3784 -1.6847 0
M  V30 41 Pd -4.1760 -4.7337 -1.7793 0
M  V30 42 Pb -3.6095 -4.9896 -0.9814 0
M  V30 43 Pb -3.3776 -4.4299 -2.3087 0
M  V30 44 Pb -4.9704 -5.0915 -1.2959 0
M  V30 45 Pb -4.7922 -4.2613 -2.4034 0
M  V30 46 Ag -0.0124 -1.1495 -5.0601 0
M  V30 47 Fe -1.4086 -2.6869 -3.8982 0
M  V30 48 Ag -2.7888 -4.2438 -2.7433 0
M  V30 49 Ag -4.9429 -0.9215 3.2020 0
M  V30 50 Fe -5.6925 0.7011 1.6359 0
M  V30 51 Ag -6.2801 2.1581 -0.1474 0
M  V30 52 Ag 4.3622 -3.1770 -3.0996 0
M  V30 53 Fe 3.9700 -4.5472 -1.2147 0
M  V30 54 Ag 4.0786 -5.1959 1.0551 0
M  V30 55 Ag 5.8906 -0.1892 -2.3242 0
M  V30 56 Fe 5.7952 1.3184 -0.4886 0
M  V30 57 Ag 5.6091 2.7493 1.4007 0
M  V30 58 Ag -5.3578 -3.4141 3.2914 0
M  V30 59 Fe -5.9410 -4.6827 1.3986 0
M  V30 60 Ag -5.5108 -5.2998 -0.8314 0
M  V30 61 Ag 1.0326 -0.4911 4.9393 0
M  V30 62 Fe 2.3606 -2.3468 4.2816 0
M  V30 63 Ag 3.7548 -4.0953 3.4831 0
M  V30 64 Ag 0.4536 2.2774 -5.4122 0
M  V30 65 Fe -0.1773 4.0800 -3.9987 0
M  V30 66 Ag -0.8859 5.6949 -2.4062 0
M  V30 67 Ag -1.3505 0.9843 -5.5410 0
M  V30 68 Fe -3.3898 1.7243 -4.5864 0
M  V30 69 Ag -5.3607 2.4240 -3.4719 0
M  V30 70 Ag -0.4482 2.6035 4.2904 0
M  V30 71 Fe -1.1696 4.1993 2.6905 0
M  V30 72 Ag -1.7811 5.6793 0.9409 0
M  V30 73 Ag 3.9795 4.3638 2.1570 0
M  V30 74 Fe 2.0828 5.1735 0.9769 0
M  V30 75 Ag 0.1958 6.0011 -0.2065 0
M  V30 76 Ag -6.3824 0.8110 -2.3789 0
M  V30 77 Fe -5.8974 -1.5016 -2.6265 0
M  V30 78 Ag -5.2742 -3.7916 -2.7281 0
M  V30 79 Ag 5.7915 -3.0463 3.1359 0
M  V30 80 Fe 5.8244 -0.6954 3.4434 0
M  V30 81 Ag 5.6752 1.6670 3.5835 0
M  V30 82 Ba 1.5481 1.9965 5.5652 0
M  V30 83 Ga 2.7951 2.6136 5.0651 0
M  V30 84 Ba 4.0277 3.2025 4.4992 0
M  V30 85 Ba 6.1098 -2.5981 -1.7242 0
M  V30 86 Ga 6.0343 -3.2898 -0.4109 0
M  V30 87 Ba 6.0631 -4.0107 0.8886 0
M  V30 88 Ba 2.0556 0.2916 -5.5085 0
M  V30 89 Ga 3.2360 -0.2882 -4.8371 0
M  V30 90 Ba 4.4994 -0.8176 -4.2855 0
M  V30 91 Ba -3.1709 5.8368 -1.1389 0
M  V30 92 Ga -4.3149 4.9283 -1.3704 0
M  V30 93 Ba -5.5203 4.1050 -1.6088 0
M  V30 94 Ba -0.5102 0.3830 3.3046 0
M  V30 95 Ga -1.6192 -0.5162 2.9458 0
M  V30 96 Ba -2.6982 -1.3948 2.4646 0
M  V30 97 Ba -3.1982 -3.8029 2.3597 0
M  V30 98 Ga -3.2209 -4.4554 1.0141 0
M  V30 99 Ba -3.2358 -5.1162 -0.3276 0
M  V30 END ATOM
M  V30 BEGIN BOND
M  V30 1 1 1 2
M  V30 2 1 1 3
M  V30 3 1 1 4
M  V30 4 1 1 5
M  V30 5 1 6 7
M  V30 6 1 6 8
M  V30 7 1 6 9
M  V30 8 1 6 10
M  V30 9 1 11 12
M  V30 10 1 11 13
M  V30 11 1 11 14
M  V30 12 1 11 15
M  V30 13 1 16 17
M  V30 14 1 16 18
M  V30 15 1 16 19
M  V30 16 1 16 20
M  V30 17 1 21 22
M  V30 18 1 21 23
M  V30 19 1 21 24
M  V30 20 1 21 25
M  V30 21 1 26 27
M  V30 22 1 26 28
M  V30 23 1 26 29
M  V30 24 1 26 30
M  V30 25 1 31 32
M  V30 26 1 31 33
M  V30 27 1 31 34
M  V30 28 1 31 35
M  V30 29 1 36 37
M  V30 30 1 36 38
M  V30 31 1 36 39
M  V30 32 1 36 40
M  V30 33 1 41 42
M  V30 34 1 41 43
M  V30 35 1 41 44
M  V30 36 1 41 45
M  V30 37 1 46 47
M  V30 38 1 47 48
M  V30 39 1 49 50
M  V30 40 1 50 51
M  V30 41 1 52 53
M  V30 42 1 53 54
M  V30 43 1 55 56
M  V30 44 1 56 57
M  V30 45 1 58 59
M  V30 46 1 59 60
M  V30 47 1 61 62
M  V30 48 1 62 63
M  V30 49 1 64 65
M  V30 50 1 65 66
M  V30 51 1 67 68
M  V30 52 1 68 69
M  V30 53 1 70 71
M  V30 54 1 71 72
M  V30 55 1 73 74
M  V30 56 1 74 75
M  V30 57 1 76 77
M  V30 58 1 77 78
M  V30 59 1 79 80
M  V30 60 1 80 81
M  V30 61 1 82 83
M  V30 62 1 83 84
M  V30 63 1 85 86
M  V30 64 1 86 87
M  V30 65 1 88 89
M  V30 66 1 89 90
M  V30 67 1 91 92
M  V30 68 1 92 93
M  V30 69 1 94 95
M  V30 70 1 95 96
M  V30 71 1 97 98
M  V30 72 1 98 99
M  V30 73 1 2 67
M  V30 74 1 3 64
M  V30 75 1 4 46
M  V30 76 1 5 88
M  V30 77 1 7 90
M  V30 78 1 8 85
M  V30 79 1 9 52
M  V30 80 1 10 55
M  V30 81 1 12 82
M  V30 82 1 13 61
M  V30 83 1 14 94
M  V30 84 1 15 70
M  V30 85 1 17 63
M  V30 86 1 18 54
M  V30 87 1 19 79
M  V30 88 1 20 87
M  V30 89 1 22 96
M  V30 90 1 23 58
M  V30 91 1 24 49
M  V30 92 1 25 97
M  V30 93 1 27 73
M  V30 94 1 28 84
M  V30 95 1 29 81
M  V30 96 1 30 57
M  V30 97 1 32 72
M  V30 98 1 33 91
M  V30 99 1 34 75
M  V30 100 1 35 66
M  V30 101 1 37 69
M  V30 102 1 38 51
M  V30 103 1 39 76
M  V30 104 1 40 93
M  V30 105 1 42 99
M  V30 106 1 43 48
M  V30 107 1 44 60
M  V30 108 1 45 78
M  V30 END BOND
M  V30 END CTAB
M  END

$$$$
