
     RDKit          3D

  0  0  0  0  0  0  0  0  0  0999 V3000
M  V30 BEGIN CTAB
M  V30 COUNTS 99 108 0 0 0
M  V30 BEGIN ATOM
M  V30 1 Pd -2.7437 3.1815 -5.0430 0
M  V30 2 Pb -2.7338 2.4746 -4.3427 0
M  V30 3 Pb -2.0033 2.7128 -5.5226 0
M  V30 4 Pb -2.6550 3.9305 -5.7008 0
M  V30 5 Pb -3.4421 3.6433 -4.4977 0
M  V30 6 Pd 1.5249 5.2320 -5.4426 0
M  V30 7 Pb 1.5631 6.1605 -5.0912 0
M  V30 8 Pb 0.8019 5.5079 -6.0785 0
M  V30 9 Pb 1.4255 4.2980 -5.7788 0
M  V30 10 Pb 2.1454 4.9240 -4.6944 0
M  V30 11 Pd -2.2035 -3.3173 -2.1156 0
M  V30 12 Pb -1.6645 -4.1427 -1.9691 0
M  V30 13 Pb -2.7267 -2.4725 -2.2589 0
M  V30 14 Pb -2.7432 -3.5739 -1.3152 0
M  V30 15 Pb -1.5720 -3.0965 -2.8560 0
M  V30 16 Pd -1.2464 -4.5526 5.3537 0
M  V30 17 Pb -0.7620 -4.3821 6.2155 0
M  V30 18 Pb -0.5822 -5.2653 5.1020 0
M  V30 19 Pb -1.8661 -3.8040 5.5920 0
M  V30 20 Pb -1.7778 -4.6769 4.5136 0
M  V30 21 Pd 2.0501 -1.2298 -1.1215 0
M  V30 22 Pb 2.9230 -1.7050 -0.9935 0
M  V30 23 Pb 2.2021 -0.6820 -0.2993 0
M  V30 24 Pb 1.8758 -1.6949 -1.9883 0
M  V30 25 Pb 1.1375 -0.8406 -1.2153 0
M  V30 26 Pd 1.6435 4.2493 0.2654 0
M  V30 27 Pb 1.5101 5.2118 0.0609 0
M  V30 28 Pb 0.9229 4.3238 0.9533 0
M  V30 29 Pb 2.2520 4.1834 -0.5480 0
M  V30 30 Pb 1.8492 3.3123 0.5668 0
M  V30 31 Pd 3.3518 -5.2675 2.1198 0
M  V30 32 Pb 3.8618 -4.7547 1.4238 0
M  V30 33 Pb 3.7959 -4.7173 2.8221 0
M  V30 34 Pb 2.8537 -5.7503 1.4054 0
M  V30 35 Pb 2.8021 -5.7540 2.8085 0
M  V30 36 Pd -2.9043 2.1670 -0.2973 0
M  V30 37 Pb -2.1904 1.6143 0.1279 0
M  V30 38 Pb -3.1703 1.4456 -0.9457 0
M  V30 39 Pb -3.5561 2.7810 -0.7492 0
M  V30 40 Pb -2.6424 2.8655 0.3708 0
M  V30 41 Pd 0.5654 -0.4300 6.2157 0
M  V30 42 Pb -0.4302 -0.4187 6.2677 0
M  V30 43 Pb 0.5848 -0.9775 7.0478 0
M  V30 44 Pb 1.5457 -0.5775 6.1252 0
M  V30 45 Pb 0.5303 -0.0988 5.2734 0
M  V30 46 Ag -3.0569 -3.8254 -0.6827 0
M  V30 47 Fe -2.6825 -4.2762 1.6201 0
M  V30 48 Ag -2.2307 -4.7039 3.9135 0
M  V30 49 Ag -1.6055 1.3064 0.4798 0
M  V30 50 Fe -0.5689 0.6615 2.5166 0
M  V30 51 Ag 0.5058 0.0092 4.5313 0
M  V30 52 Ag 4.0624 -4.2338 3.3238 0
M  V30 53 Fe 3.3615 -2.4749 4.7470 0
M  V30 54 Ag 2.2425 -0.8145 6.0119 0
M  V30 55 Ag 1.5481 6.7683 -4.6724 0
M  V30 56 Fe 1.4783 6.8800 -2.3247 0
M  V30 57 Ag 1.4597 5.9091 -0.1820 0
M  V30 58 Ag -1.2255 -4.7314 -1.8359 0
M  V30 59 Fe 0.5979 -5.5235 -0.5465 0
M  V30 60 Ag 2.4234 -6.0429 0.8719 0
M  V30 61 Ag -2.6663 1.9862 -3.7838 0
M  V30 62 Fe -1.1562 0.6690 -2.5179 0
M  V30 63 Ag 0.4336 -0.6101 -1.3117 0
M  V30 64 Ba 2.6067 4.6843 -4.1265 0
M  V30 65 Ga 2.5942 4.4343 -2.6483 0
M  V30 66 Ba 2.6898 4.1521 -1.1790 0
M  V30 67 Ba -1.4057 2.3982 -5.8458 0
M  V30 68 Ga -0.0408 2.9315 -5.9800 0
M  V30 69 Ba 1.2622 3.6134 -6.0300 0
M  V30 70 Ba -2.2785 -3.2014 5.7645 0
M  V30 71 Ga -1.8238 -1.8289 6.0427 0
M  V30 72 Ba -1.1677 -0.5343 6.2891 0
M  V30 73 Ba -2.4815 4.4766 -6.1866 0
M  V30 74 Ga -1.1710 5.1254 -6.3995 0
M  V30 75 Ba 0.1967 5.6772 -6.4914 0
M  V30 76 Ba 2.2994 -0.2402 0.2987 0
M  V30 77 Ga 2.1532 1.2098 0.5508 0
M  V30 78 Ba 2.0282 2.6468 0.8769 0
M  V30 79 Ba -3.9319 3.9227 -4.0036 0
M  V30 80 Ga -4.0269 3.6262 -2.5595 0
M  V30 81 Ba -4.0107 3.2429 -1.1327 0
M  V30 82 Ba 0.3156 4.3998 1.3861 0
M  V30 83 Ga -1.0551 3.8881 1.1890 0
M  V30 84 Ba -2.3926 3.3307 0.9060 0
M  V30 85 Ba 3.5559 -2.0948 -0.8771 0
M  V30 86 Ga 3.9057 -3.2242 0.0122 0
M  V30 87 Ba 4.2381 -4.3537 0.9081 0
M  V30 88 Ba -1.0131 -2.9876 -3.3414 0
M  V30 89 Ga 0.3469 -2.4896 -3.0707 0
M  V30 90 Ba 1.6608 -1.9715 -2.6509 0
M  V30 91 Ba -0.4407 -4.1878 6.8685 0
M  V30 92 Ga 0.0939 -2.8861 7.3129 0
M  V30 93 Ba 0.5824 -1.5171 7.5642 0
M  V30 94 Ba -0.0677 -5.7960 4.9423 0
M  V30 95 Ga 1.1516 -5.9332 4.1087 0
M  V30 96 Ba 2.3780 -6.1415 3.3007 0
M  V30 97 Ba -3.1226 -1.8452 -2.3933 0
M  V30 98 Ga -3.2288 -0.4605 -1.8788 0
M  V30 99 Ba -3.4233 0.9437 -1.4506 0
M  V30 END ATOM
M  V30 BEGIN BOND
M  V30 1 1 1 2
M  V30 2 1 1 3
M  V30 3 1 1 4
M  V30 4 1 1 5
M  V30 5 1 6 7
M  V30 6 1 6 8
M  V30 7 1 6 9
M  V30 8 1 6 10
M  V30 9 1 11 12
M  V30 10 1 11 13
M  V30 11 1 11 14
M  V30 12 1 11 15
M  V30 13 1 16 17
M  V30 14 1 16 18
M  V30 15 1 16 19
M  V30 16 1 16 20
M  V30 17 1 21 22
M  V30 18 1 21 23
M  V30 19 1 21 24
M  V30 20 1 21 25
M  V30 21 1 26 27
M  V30 22 1 26 28
M  V30 23 1 26 29
M  V30 24 1 26 30
M  V30 25 1 31 32
M  V30 26 1 31 33
M  V30 27 1 31 34
M  V30 28 1 31 35
M  V30 29 1 36 37
M  V30 30 1 36 38
M  V30 31 1 36 39
M  V30 32 1 36 40
M  V30 33 1 41 42
M  V30 34 1 41 43
M  V30 35 1 41 44
M  V30 36 1 41 45
M  V30 37 1 46 47
M  V30 38 1 47 48
M  V30 39 1 49 50
M  V30 40 1 50 51
M  V30 41 1 52 53
M  V30 42 1 53 54
M  V30 43 1 55 56
M  V30 44 1 56 57
M  V30 45 1 58 59
M  V30 46 1 59 60
M  V30 47 1 61 62
M  V30 48 1 62 63
M  V30 49 1 64 65
M  V30 50 1 65 66
M  V30 51 1 67 68
M  V30 52 1 68 69
M  V30 53 1 70 71
M  V30 54 1 71 72
M  V30 55 1 73 74
M  V30 56 1 74 75
M  V30 57 1 76 77
M  V30 58 1 77 78
M  V30 59 1 79 80
M  V30 60 1 80 81
M  V30 61 1 82 83
M  V30 62 1 83 84
M  V30 63 1 85 86
M  V30 64 1 86 87
M  V30 65 1 88 89
M  V30 66 1 89 90
M  V30 67 1 91 92
M  V30 68 1 92 93
M  V30 69 1 94 95
M  V30 70 1 95 96
M  V30 71 1 97 98
M  V30 72 1 98 99
M  V30 73 1 2 61
M  V30 74 1 3 67
M  V30 75 1 4 73
M  V30 76 1 5 79
M  V30 77 1 7 55
M  V30 78 1 8 75
M  V30 79 1 9 69
M  V30 80 1 10 64
M  V30 81 1 12 58
M  V30 82 1 13 97
M  V30 83 1 14 46
M  V30 84 1 15 88
M  V30 85 1 17 91
M  V30 86 1 18 94
M  V30 87 1 19 70
M  V30 88 1 20 48
M  V30 89 1 22 85
M  V30 90 1 23 76
M  V30 91 1 24 90
M  V30 92 1 25 63
M  V30 93 1 27 57
M  V30 94 1 28 82
M  V30 95 1 29 66
M  V30 96 1 30 78
M  V30 97 1 32 87
M  V30 98 1 33 52
M  V30 99 1 34 60
M  V30 100 1 35 96
M  V30 101 1 37 49
M  V30 102 1 38 99
M  V30 103 1 39 81
M  V30 104 1 40 84
M  V30 105 1 42 72
M  V30 106 1 43 93
M  V30 107 1 44 54
M  V30 108 1 45 51
M  V30 END BOND
M  V30 END CTAB
M  END

$$$$
