
     RDKit          3D

  0  0  0  0  0  0  0  0  0  0999 V3000
M  V30 BEGIN CTAB
M  V30 COUNTS 99 108 0 0 0
M  V30 BEGIN ATOM
M  V30 1 Pd 5.4034 -1.6441 -5.0621 0
M  V30 2 Pb 5.6689 -0.9881 -4.3535 0
M  V30 3 Pb 5.1351 -2.3282 -5.7409 0
M  V30 4 Pb 6.3351 -2.0036 -5.1078 0
M  V30 5 Pb 4.4542 -1.3486 -4.9903 0
M  V30 6 Pd 6.1161 -6.2851 -4.2864 0
M  V30 7 Pb 5.2891 -6.7666 -3.9937 0
M  V30 8 Pb 6.9011 -5.7184 -4.5341 0
M  V30 9 Pb 5.6924 -6.0377 -5.1552 0
M  V30 10 Pb 6.5029 -6.4349 -3.3808 0
M  V30 11 Pd -1.3219 3.8382 -0.7362 0
M  V30 12 Pb -0.8212 4.4125 -0.0883 0
M  V30 13 Pb -1.8420 3.1913 -1.2924 0
M  V30 14 Pb -2.1539 4.3805 -0.5861 0
M  V30 15 Pb -0.4698 3.4015 -1.0373 0
M  V30 16 Pd -7.8904 5.9401 2.4716 0
M  V30 17 Pb -8.4804 5.3940 1.8827 0
M  V30 18 Pb -7.2553 6.4202 3.0700 0
M  V30 19 Pb -8.2090 5.4063 3.2656 0
M  V30 20 Pb -7.3853 6.2858 1.6844 0
M  V30 21 Pd 3.3725 0.2429 -0.2061 0
M  V30 22 Pb 2.5983 0.1660 0.4171 0
M  V30 23 Pb 3.8485 -0.4202 0.3701 0
M  V30 24 Pb 2.8765 0.9035 -0.7706 0
M  V30 25 Pb 4.1718 0.3397 -0.8044 0
M  V30 26 Pd 3.5709 -5.1305 -0.1166 0
M  V30 27 Pb 3.3035 -5.8387 -0.7726 0
M  V30 28 Pb 2.6102 -4.8748 0.0214 0
M  V30 29 Pb 4.5181 -5.4375 -0.2093 0
M  V30 30 Pb 3.8812 -4.4107 0.5033 0
M  V30 31 Pd -1.6096 3.7446 4.5247 0
M  V30 32 Pb -1.2074 2.8942 4.1947 0
M  V30 33 Pb -2.1875 3.2249 5.1591 0
M  V30 34 Pb -1.0497 4.2695 3.8781 0
M  V30 35 Pb -2.0702 4.5845 4.7971 0
M  V30 36 Pd -1.2484 -1.5799 -0.9334 0
M  V30 37 Pb -1.8589 -1.6891 -0.1473 0
M  V30 38 Pb -1.7977 -0.8267 -1.3034 0
M  V30 39 Pb -0.6440 -1.4506 -1.7176 0
M  V30 40 Pb -0.7369 -2.3698 -0.5811 0
M  V30 41 Pd -6.3928 0.9452 4.3627 0
M  V30 42 Pb -6.9777 1.7271 4.6386 0
M  V30 43 Pb -7.0693 0.7236 3.6650 0
M  V30 44 Pb -5.7019 1.1864 5.0487 0
M  V30 45 Pb -5.8153 0.1976 4.0354 0
M  V30 46 Ag -2.7556 4.8358 -0.5632 0
M  V30 47 Fe -4.8283 5.6596 0.2610 0
M  V30 48 Ag -6.8986 6.4353 1.1359 0
M  V30 49 Ag -2.2896 -1.8004 0.4581 0
M  V30 50 Fe -3.8381 -1.0680 2.1041 0
M  V30 51 Ag -5.3870 -0.3512 3.7567 0
M  V30 52 Ag 3.7320 -1.1709 -4.9231 0
M  V30 53 Fe 1.7592 -1.2383 -3.6066 0
M  V30 54 Ag -0.2361 -1.2865 -2.3238 0
M  V30 55 Ag 2.0501 0.1077 0.9211 0
M  V30 56 Fe 0.5483 1.1639 2.4219 0
M  V30 57 Ag -0.9383 2.2580 3.9107 0
M  V30 58 Ag -8.8317 4.8334 1.5473 0
M  V30 59 Fe -8.5624 2.5320 1.9769 0
M  V30 60 Ag -7.5807 0.7234 3.1262 0
M  V30 61 Ag -6.7233 6.6939 3.5142 0
M  V30 62 Fe -4.5797 6.1248 4.3447 0
M  V30 63 Ag -2.4854 5.1884 4.9324 0
M  V30 64 Ba 6.7362 -6.4867 -2.6740 0
M  V30 65 Ga 6.0204 -6.1092 -1.4445 0
M  V30 66 Ba 5.2168 -5.7009 -0.2806 0
M  V30 67 Ba 4.9544 -2.8806 -6.2151 0
M  V30 68 Ga 5.1325 -4.3361 -6.0731 0
M  V30 69 Ba 5.3813 -5.7567 -5.7743 0
M  V30 70 Ba -2.6210 2.8419 5.6414 0
M  V30 71 Ga -3.9024 2.1052 5.5838 0
M  V30 72 Ba -5.1805 1.3608 5.5633 0
M  V30 73 Ba -8.3718 4.9591 3.8582 0
M  V30 74 Ga -7.8958 3.6256 4.3281 0
M  V30 75 Ba -7.4481 2.2966 4.8366 0
M  V30 76 Ba 7.0002 -2.3477 -5.1402 0
M  V30 77 Ga 7.3039 -3.7759 -4.9385 0
M  V30 78 Ba 7.4381 -5.2255 -4.7077 0
M  V30 79 Ba 4.1606 -0.9234 0.8291 0
M  V30 80 Ga 4.1638 -2.3963 0.8914 0
M  V30 81 Ba 4.1590 -3.8697 0.9416 0
M  V30 82 Ba 4.6602 -7.0771 -3.7255 0
M  V30 83 Ga 3.8726 -6.7582 -2.5173 0
M  V30 84 Ba 3.1543 -6.3652 -1.2879 0
M  V30 85 Ba -0.4638 4.8025 0.4439 0
M  V30 86 Ga -0.5395 4.7526 1.9190 0
M  V30 87 Ba -0.6415 4.6746 3.3913 0
M  V30 88 Ba 1.8816 -4.7496 0.1666 0
M  V30 89 Ga 0.7746 -3.8069 -0.1082 0
M  V30 90 Ba -0.4501 -2.9912 -0.2632 0
M  V30 91 Ba 0.1557 3.1445 -1.3710 0
M  V30 92 Ga 1.3167 2.2437 -1.2157 0
M  V30 93 Ba 2.5263 1.3945 -1.2172 0
M  V30 94 Ba 5.8721 -0.5061 -3.8141 0
M  V30 95 Ga 5.3046 -0.0459 -2.5292 0
M  V30 96 Ba 4.7784 0.4446 -1.2381 0
M  V30 97 Ba -2.2386 2.6719 -1.6592 0
M  V30 98 Ga -2.2183 1.1951 -1.6454 0
M  V30 99 Ba -2.2007 -0.2817 -1.6317 0
M  V30 END ATOM
M  V30 BEGIN BOND
M  V30 1 1 1 2
M  V30 2 1 1 3
M  V30 3 1 1 4
M  V30 4 1 1 5
M  V30 5 1 6 7
M  V30 6 1 6 8
M  V30 7 1 6 9
M  V30 8 1 6 10
M  V30 9 1 11 12
M  V30 10 1 11 13
M  V30 11 1 11 14
M  V30 12 1 11 15
M  V30 13 1 16 17
M  V30 14 1 16 18
M  V30 15 1 16 19
M  V30 16 1 16 20
M  V30 17 1 21 22
M  V30 18 1 21 23
M  V30 19 1 21 24
M  V30 20 1 21 25
M  V30 21 1 26 27
M  V30 22 1 26 28
M  V30 23 1 26 29
M  V30 24 1 26 30
M  V30 25 1 31 32
M  V30 26 1 31 33
M  V30 27 1 31 34
M  V30 28 1 31 35
M  V30 29 1 36 37
M  V30 30 1 36 38
M  V30 31 1 36 39
M  V30 32 1 36 40
M  V30 33 1 41 42
M  V30 34 1 41 43
M  V30 35 1 41 44
M  V30 36 1 41 45
M  V30 37 1 46 47
M  V30 38 1 47 48
M  V30 39 1 49 50
M  V30 40 1 50 51
M  V30 41 1 52 53
M  V30 42 1 53 54
M  V30 43 1 55 56
M  V30 44 1 56 57
M  V30 45 1 58 59
M  V30 46 1 59 60
M  V30 47 1 61 62
M  V30 48 1 62 63
M  V30 49 1 64 65
M  V30 50 1 65 66
M  V30 51 1 67 68
M  V30 52 1 68 69
M  V30 53 1 70 71
M  V30 54 1 71 72
M  V30 55 1 73 74
M  V30 56 1 74 75
M  V30 57 1 76 77
M  V30 58 1 77 78
M  V30 59 1 79 80
M  V30 60 1 80 81
M  V30 61 1 82 83
M  V30 62 1 83 84
M  V30 63 1 85 86
M  V30 64 1 86 87
M  V30 65 1 88 89
M  V30 66 1 89 90
M  V30 67 1 91 92
M  V30 68 1 92 93
M  V30 69 1 94 95
M  V30 70 1 95 96
M  V30 71 1 97 98
M  V30 72 1 98 99
M  V30 73 1 2 94
M  V30 74 1 3 67
M  V30 75 1 4 76
M  V30 76 1 5 52
M  V30 77 1 7 82
M  V30 78 1 8 78
M  V30 79 1 9 69
M  V30 80 1 10 64
M  V30 81 1 12 85
M  V30 82 1 13 97
M  V30 83 1 14 46
M  V30 84 1 15 91
M  V30 85 1 17 58
M  V30 86 1 18 61
M  V30 87 1 19 73
M  V30 88 1 20 48
M  V30 89 1 22 55
M  V30 90 1 23 79
M  V30 91 1 24 93
M  V30 92 1 25 96
M  V30 93 1 27 84
M  V30 94 1 28 88
M  V30 95 1 29 66
M  V30 96 1 30 81
M  V30 97 1 32 57
M  V30 98 1 33 70
M  V30 99 1 34 87
M  V30 100 1 35 63
M  V30 101 1 37 49
M  V30 102 1 38 99
M  V30 103 1 39 54
M  V30 104 1 40 90
M  V30 105 1 42 75
M  V30 106 1 43 60
M  V30 107 1 44 72
M  V30 108 1 45 51
M  V30 END BOND
M  V30 END CTAB
M  END

$$$$
