
     RDKit          3D

  0  0  0  0  0  0  0  0  0  0999 V3000
M  V30 BEGIN CTAB
M  V30 COUNTS 99 108 0 0 0
M  V30 BEGIN ATOM
M  V30 1 Pd 3.2173 -1.1345 2.6053 0
M  V30 2 Pb 4.1996 -1.1900 2.4088 0
M  V30 3 Pb 2.2414 -1.0956 2.8229 0
M  V30 4 Pb 3.3822 -0.8130 3.5396 0
M  V30 5 Pb 3.0348 -1.4690 1.6781 0
M  V30 6 Pd -5.8382 -5.1379 -0.0131 0
M  V30 7 Pb -6.0074 -4.3594 -0.6198 0
M  V30 8 Pb -5.7128 -5.9078 0.6116 0
M  V30 9 Pb -5.4284 -5.6726 -0.7574 0
M  V30 10 Pb -6.1906 -4.6062 0.7617 0
M  V30 11 Pd 3.0960 4.0422 -4.7021 0
M  V30 12 Pb 3.4862 3.2107 -5.0796 0
M  V30 13 Pb 2.2769 3.9127 -5.2586 0
M  V30 14 Pb 2.6644 4.8668 -4.3344 0
M  V30 15 Pb 3.9057 4.1286 -4.0883 0
M  V30 16 Pd -1.7044 6.3448 0.4729 0
M  V30 17 Pb -1.3249 6.7528 -0.3555 0
M  V30 18 Pb -1.9366 5.8417 1.3112 0
M  V30 19 Pb -2.4440 5.9256 -0.0564 0
M  V30 20 Pb -0.9699 6.7652 0.9942 0
M  V30 21 Pd -3.9009 0.9795 -4.5842 0
M  V30 22 Pb -4.5744 0.4188 -4.1015 0
M  V30 23 Pb -3.2273 1.5237 -5.0843 0
M  V30 24 Pb -4.1937 1.7884 -4.0734 0
M  V30 25 Pb -3.5620 0.1531 -5.0287 0
M  V30 26 Pd 2.7958 3.6205 5.2220 0
M  V30 27 Pb 1.7925 3.5704 5.2412 0
M  V30 28 Pb 3.7717 3.6834 5.0341 0
M  V30 29 Pb 2.9243 2.6696 5.5072 0
M  V30 30 Pb 2.6900 4.5556 4.9026 0
M  V30 31 Pd 6.6553 1.4860 -0.6070 0
M  V30 32 Pb 6.7830 0.6868 -0.0187 0
M  V30 33 Pb 6.7383 2.0508 0.2122 0
M  V30 34 Pb 6.4469 2.2967 -1.1900 0
M  V30 35 Pb 6.6068 0.9057 -1.4114 0
M  V30 36 Pd -0.9107 -5.4008 -2.3624 0
M  V30 37 Pb -1.1490 -4.9376 -3.2143 0
M  V30 38 Pb -0.6772 -5.8242 -1.4890 0
M  V30 39 Pb -1.7570 -5.9352 -2.4347 0
M  V30 40 Pb -0.1080 -4.8128 -2.2548 0
M  V30 41 Pd -3.4439 -4.7327 4.1029 0
M  V30 42 Pb -3.9247 -5.5904 3.9411 0
M  V30 43 Pb -2.9506 -3.8646 4.1495 0
M  V30 44 Pb -2.5906 -5.2155 3.9319 0
M  V30 45 Pb -4.3229 -4.2592 4.0823 0
M  V30 46 Ag -6.1745 -3.7628 -1.0451 0
M  V30 47 Fe -5.5936 -1.8986 -2.3991 0
M  V30 48 Ag -5.0783 -0.0210 -3.7610 0
M  V30 49 Ag -3.2850 -0.4885 -5.2943 0
M  V30 50 Fe -2.3078 -2.5575 -4.6678 0
M  V30 51 Ag -1.3504 -4.5591 -3.8277 0
M  V30 52 Ag -2.9907 5.6287 -0.4779 0
M  V30 53 Fe -3.7127 4.0149 -2.0655 0
M  V30 54 Ag -4.3853 2.3801 -3.6532 0
M  V30 55 Ag -1.9730 5.4515 1.9575 0
M  V30 56 Fe -0.5871 4.4760 3.6326 0
M  V30 57 Ag 1.0449 3.6104 5.1376 0
M  V30 58 Ag 3.8246 2.5718 -5.2351 0
M  V30 59 Fe 5.2542 1.2029 -3.9602 0
M  V30 60 Ag 6.5033 0.5763 -2.0654 0
M  V30 61 Ag -0.4166 7.0179 1.4214 0
M  V30 62 Fe 1.1533 6.3026 3.0400 0
M  V30 63 Ag 2.5591 5.2251 4.6080 0
M  V30 64 Ag 2.2716 5.4590 -4.0915 0
M  V30 65 Fe 0.6669 6.3141 -2.5634 0
M  V30 66 Ag -0.9390 6.9926 -0.9507 0
M  V30 67 Ag 2.9228 -1.7270 0.9802 0
M  V30 68 Fe 1.7062 -3.0371 -0.5862 0
M  V30 69 Ag 0.4739 -4.3533 -2.1351 0
M  V30 70 Ag -0.5039 -6.0720 -0.8047 0
M  V30 71 Fe -1.0981 -5.9482 1.4868 0
M  V30 72 Ag -2.0080 -5.5793 3.6438 0
M  V30 73 Ag 1.5257 -1.0602 3.0472 0
M  V30 74 Fe -0.5282 -2.1244 3.5875 0
M  V30 75 Ag -2.5676 -3.2209 4.1171 0
M  V30 76 Ag 4.4674 3.7254 4.7683 0
M  V30 77 Fe 5.7450 3.1246 2.8629 0
M  V30 78 Ag 6.8029 2.4181 0.8612 0
M  V30 79 Ag 1.6363 3.8070 -5.6315 0
M  V30 80 Fe -0.5471 2.8753 -5.5893 0
M  V30 81 Ag -2.7150 1.9150 -5.4674 0
M  V30 82 Ba 4.9324 -1.2567 2.2473 0
M  V30 83 Ga 5.8917 -0.5779 1.3511 0
M  V30 84 Ba 6.8457 0.1060 0.4530 0
M  V30 85 Ba 4.5255 4.2124 -3.6404 0
M  V30 86 Ga 5.3683 3.4977 -2.6286 0
M  V30 87 Ba 6.3076 2.9255 -1.6111 0
M  V30 88 Ba -6.4112 -4.2246 1.3730 0
M  V30 89 Ga -5.7597 -4.0406 2.6864 0
M  V30 90 Ba -4.9894 -3.9465 3.9435 0
M  V30 91 Ba -5.6328 -6.4483 1.1242 0
M  V30 92 Ga -4.9770 -6.4120 2.4408 0
M  V30 93 Ba -4.2784 -6.2089 3.7193 0
M  V30 94 Ba -5.1026 -6.0961 -1.2895 0
M  V30 95 Ga -3.7541 -6.1936 -1.8925 0
M  V30 96 Ba -2.4109 -6.3033 -2.5049 0
M  V30 97 Ba 3.4471 -0.5853 4.2532 0
M  V30 98 Ga 3.2628 0.6900 4.9759 0
M  V30 99 Ba 3.0804 1.9618 5.7052 0
M  V30 END ATOM
M  V30 BEGIN BOND
M  V30 1 1 1 2
M  V30 2 1 1 3
M  V30 3 1 1 4
M  V30 4 1 1 5
M  V30 5 1 6 7
M  V30 6 1 6 8
M  V30 7 1 6 9
M  V30 8 1 6 10
M  V30 9 1 11 12
M  V30 10 1 11 13
M  V30 11 1 11 14
M  V30 12 1 11 15
M  V30 13 1 16 17
M  V30 14 1 16 18
M  V30 15 1 16 19
M  V30 16 1 16 20
M  V30 17 1 21 22
M  V30 18 1 21 23
M  V30 19 1 21 24
M  V30 20 1 21 25
M  V30 21 1 26 27
M  V30 22 1 26 28
M  V30 23 1 26 29
M  V30 24 1 26 30
M  V30 25 1 31 32
M  V30 26 1 31 33
M  V30 27 1 31 34
M  V30 28 1 31 35
M  V30 29 1 36 37
M  V30 30 1 36 38
M  V30 31 1 36 39
M  V30 32 1 36 40
M  V30 33 1 41 42
M  V30 34 1 41 43
M  V30 35 1 41 44
M  V30 36 1 41 45
M  V30 37 1 46 47
M  V30 38 1 47 48
M  V30 39 1 49 50
M  V30 40 1 50 51
M  V30 41 1 52 53
M  V30 42 1 53 54
M  V30 43 1 55 56
M  V30 44 1 56 57
M  V30 45 1 58 59
M  V30 46 1 59 60
M  V30 47 1 61 62
M  V30 48 1 62 63
M  V30 49 1 64 65
M  V30 50 1 65 66
M  V30 51 1 67 68
M  V30 52 1 68 69
M  V30 53 1 70 71
M  V30 54 1 71 72
M  V30 55 1 73 74
M  V30 56 1 74 75
M  V30 57 1 76 77
M  V30 58 1 77 78
M  V30 59 1 79 80
M  V30 60 1 80 81
M  V30 61 1 82 83
M  V30 62 1 83 84
M  V30 63 1 85 86
M  V30 64 1 86 87
M  V30 65 1 88 89
M  V30 66 1 89 90
M  V30 67 1 91 92
M  V30 68 1 92 93
M  V30 69 1 94 95
M  V30 70 1 95 96
M  V30 71 1 97 98
M  V30 72 1 98 99
M  V30 73 1 2 82
M  V30 74 1 3 73
M  V30 75 1 4 97
M  V30 76 1 5 67
M  V30 77 1 7 46
M  V30 78 1 8 91
M  V30 79 1 9 94
M  V30 80 1 10 88
M  V30 81 1 12 58
M  V30 82 1 13 79
M  V30 83 1 14 64
M  V30 84 1 15 85
M  V30 85 1 17 66
M  V30 86 1 18 55
M  V30 87 1 19 52
M  V30 88 1 20 61
M  V30 89 1 22 48
M  V30 90 1 23 81
M  V30 91 1 24 54
M  V30 92 1 25 49
M  V30 93 1 27 57
M  V30 94 1 28 76
M  V30 95 1 29 99
M  V30 96 1 30 63
M  V30 97 1 32 84
M  V30 98 1 33 78
M  V30 99 1 34 87
M  V30 100 1 35 60
M  V30 101 1 37 51
M  V30 102 1 38 70
M  V30 103 1 39 96
M  V30 104 1 40 69
M  V30 105 1 42 93
M  V30 106 1 43 75
M  V30 107 1 44 72
M  V30 108 1 45 90
M  V30 END BOND
M  V30 END CTAB
M  END

$$$$
