
     RDKit          3D

  0  0  0  0  0  0  0  0  0  0999 V3000
M  V30 BEGIN CTAB
M  V30 COUNTS 99 108 0 0 0
M  V30 BEGIN ATOM
M  V30 1 Pd -1.3344 -5.5216 3.2329 0
M  V30 2 Pb -2.0050 -4.9137 2.8008 0
M  V30 3 Pb -1.8133 -6.3385 2.8761 0
M  V30 4 Pb -0.7528 -6.1327 3.7613 0
M  V30 5 Pb -0.7307 -4.7511 3.4338 0
M  V30 6 Pd 0.0689 -10.1498 0.2194 0
M  V30 7 Pb 0.8982 -10.5587 -0.1500 0
M  V30 8 Pb 0.2740 -10.5375 1.1125 0
M  V30 9 Pb -0.7311 -9.6748 0.6280 0
M  V30 10 Pb -0.0300 -9.6287 -0.6426 0
M  V30 11 Pd 0.0767 2.7786 -2.5144 0
M  V30 12 Pb -0.8685 2.7523 -2.1836 0
M  V30 13 Pb 1.0061 2.6932 -2.8703 0
M  V30 14 Pb -0.2549 3.2409 -3.3302 0
M  V30 15 Pb 0.4226 2.4311 -1.6487 0
M  V30 16 Pd -1.2492 7.8538 -2.6332 0
M  V30 17 Pb -0.2422 7.7977 -2.5774 0
M  V30 18 Pb -2.2177 7.7794 -2.4044 0
M  V30 19 Pb -1.2092 8.7255 -2.1531 0
M  V30 20 Pb -1.2907 7.0537 -3.2357 0
M  V30 21 Pd -1.5963 -0.4503 1.4783 0
M  V30 22 Pb -1.9036 0.1547 2.2122 0
M  V30 23 Pb -1.3152 -0.9796 0.6818 0
M  V30 24 Pb -0.8064 0.1385 1.3513 0
M  V30 25 Pb -2.3359 -1.1053 1.6185 0
M  V30 26 Pd 2.6111 -5.7528 -2.4883 0
M  V30 27 Pb 3.2736 -6.4945 -2.5380 0
M  V30 28 Pb 3.3401 -5.0780 -2.3520 0
M  V30 29 Pb 1.8670 -6.4397 -2.5663 0
M  V30 30 Pb 1.9299 -5.0272 -2.4469 0
M  V30 31 Pd -3.0607 4.8394 1.4057 0
M  V30 32 Pb -2.8844 4.0796 2.0407 0
M  V30 33 Pb -2.7468 5.4511 2.1355 0
M  V30 34 Pb -3.2792 4.1980 0.6750 0
M  V30 35 Pb -3.3434 5.5830 0.7820 0
M  V30 36 Pd 3.0687 -0.5505 -0.5312 0
M  V30 37 Pb 2.4801 0.1915 -0.2130 0
M  V30 38 Pb 3.2952 -0.0050 -1.3408 0
M  V30 39 Pb 2.8229 -1.0390 0.3092 0
M  V30 40 Pb 3.6523 -1.2985 -0.8597 0
M  V30 41 Pd 1.4375 6.8592 1.7552 0
M  V30 42 Pb 1.5325 7.8362 1.9323 0
M  V30 43 Pb 1.7988 6.9904 0.8176 0
M  V30 44 Pb 0.8634 6.7923 2.5696 0
M  V30 45 Pb 1.2722 5.8920 1.5650 0
M  V30 46 Ag 2.0254 0.7314 0.0377 0
M  V30 47 Fe 1.6128 2.9673 0.7216 0
M  V30 48 Ag 1.0990 5.1765 1.4235 0
M  V30 49 Ag -1.0759 9.3322 -1.7466 0
M  V30 50 Fe 0.1766 9.6149 0.2226 0
M  V30 51 Ag 1.4389 8.5696 1.9054 0
M  V30 52 Ag -0.3949 -6.6915 4.0950 0
M  V30 53 Fe 0.2258 -8.8606 3.4130 0
M  V30 54 Ag 0.4420 -10.5920 1.8308 0
M  V30 55 Ag -1.1245 -1.3379 0.0547 0
M  V30 56 Fe 0.1543 -2.9237 -1.1586 0
M  V30 57 Ag 1.4068 -4.4961 -2.4160 0
M  V30 58 Ag -0.2106 -4.2140 3.4924 0
M  V30 59 Fe 1.2049 -2.7528 2.2631 0
M  V30 60 Ag 2.5943 -1.3237 0.9678 0
M  V30 61 Ag 1.5580 -10.6919 -0.4616 0
M  V30 62 Fe 3.0013 -9.2197 -1.6052 0
M  V30 63 Ag 3.6377 -7.1408 -2.5172 0
M  V30 64 Ba -0.5395 3.6596 -3.8766 0
M  V30 65 Ga -0.9326 5.0793 -3.8343 0
M  V30 66 Ba -1.3142 6.5003 -3.7457 0
M  V30 67 Ba -0.0733 -9.2205 -1.2854 0
M  V30 68 Ga 0.6441 -8.0779 -1.9249 0
M  V30 69 Ba 1.2961 -6.9436 -2.6440 0
M  V30 70 Ba -2.1345 -6.9591 2.5699 0
M  V30 71 Ga -1.6951 -8.1352 1.7604 0
M  V30 72 Ba -1.3391 -9.3388 0.9506 0
M  V30 73 Ba -2.4419 5.8244 2.7145 0
M  V30 74 Ga -1.0722 6.3231 2.9596 0
M  V30 75 Ba 0.3245 6.7884 3.0907 0
M  V30 76 Ba -1.5894 2.6871 -1.9796 0
M  V30 77 Ga -2.4906 3.2068 -0.9351 0
M  V30 78 Ba -3.3935 3.7255 0.1084 0
M  V30 79 Ba 3.8874 -4.5773 -2.2239 0
M  V30 80 Ga 3.9728 -3.2070 -1.6728 0
M  V30 81 Ba 4.1057 -1.8380 -1.1277 0
M  V30 82 Ba -2.1076 0.6635 2.7244 0
M  V30 83 Ga -2.4539 2.0986 2.6289 0
M  V30 84 Ba -2.8014 3.5348 2.5580 0
M  V30 85 Ba 0.7056 2.2252 -0.9906 0
M  V30 86 Ga 0.2602 1.3901 0.1303 0
M  V30 87 Ba -0.1975 0.5510 1.2432 0
M  V30 88 Ba -2.5525 -4.4691 2.5361 0
M  V30 89 Ga -2.7019 -3.0624 2.1130 0
M  V30 90 Ba -2.8391 -1.6548 1.6890 0
M  V30 91 Ba 0.5011 7.7196 -2.4254 0
M  V30 92 Ga 1.2597 7.4174 -1.1734 0
M  V30 93 Ba 1.9991 7.1141 0.0900 0
M  V30 94 Ba -2.8923 7.6902 -2.0881 0
M  V30 95 Ga -3.2705 6.8828 -0.9015 0
M  V30 96 Ba -3.6439 6.0800 0.2897 0
M  V30 97 Ba 1.7045 2.5337 -3.0901 0
M  V30 98 Ga 2.6183 1.5071 -2.5513 0
M  V30 99 Ba 3.4351 0.4493 -1.9239 0
M  V30 END ATOM
M  V30 BEGIN BOND
M  V30 1 1 1 2
M  V30 2 1 1 3
M  V30 3 1 1 4
M  V30 4 1 1 5
M  V30 5 1 6 7
M  V30 6 1 6 8
M  V30 7 1 6 9
M  V30 8 1 6 10
M  V30 9 1 11 12
M  V30 10 1 11 13
M  V30 11 1 11 14
M  V30 12 1 11 15
M  V30 13 1 16 17
M  V30 14 1 16 18
M  V30 15 1 16 19
M  V30 16 1 16 20
M  V30 17 1 21 22
M  V30 18 1 21 23
M  V30 19 1 21 24
M  V30 20 1 21 25
M  V30 21 1 26 27
M  V30 22 1 26 28
M  V30 23 1 26 29
M  V30 24 1 26 30
M  V30 25 1 31 32
M  V30 26 1 31 33
M  V30 27 1 31 34
M  V30 28 1 31 35
M  V30 29 1 36 37
M  V30 30 1 36 38
M  V30 31 1 36 39
M  V30 32 1 36 40
M  V30 33 1 41 42
M  V30 34 1 41 43
M  V30 35 1 41 44
M  V30 36 1 41 45
M  V30 37 1 46 47
M  V30 38 1 47 48
M  V30 39 1 49 50
M  V30 40 1 50 51
M  V30 41 1 52 53
M  V30 42 1 53 54
M  V30 43 1 55 56
M  V30 44 1 56 57
M  V30 45 1 58 59
M  V30 46 1 59 60
M  V30 47 1 61 62
M  V30 48 1 62 63
M  V30 49 1 64 65
M  V30 50 1 65 66
M  V30 51 1 67 68
M  V30 52 1 68 69
M  V30 53 1 70 71
M  V30 54 1 71 72
M  V30 55 1 73 74
M  V30 56 1 74 75
M  V30 57 1 76 77
M  V30 58 1 77 78
M  V30 59 1 79 80
M  V30 60 1 80 81
M  V30 61 1 82 83
M  V30 62 1 83 84
M  V30 63 1 85 86
M  V30 64 1 86 87
M  V30 65 1 88 89
M  V30 66 1 89 90
M  V30 67 1 91 92
M  V30 68 1 92 93
M  V30 69 1 94 95
M  V30 70 1 95 96
M  V30 71 1 97 98
M  V30 72 1 98 99
M  V30 73 1 2 88
M  V30 74 1 3 70
M  V30 75 1 4 52
M  V30 76 1 5 58
M  V30 77 1 7 61
M  V30 78 1 8 54
M  V30 79 1 9 72
M  V30 80 1 10 67
M  V30 81 1 12 76
M  V30 82 1 13 97
M  V30 83 1 14 64
M  V30 84 1 15 85
M  V30 85 1 17 91
M  V30 86 1 18 94
M  V30 87 1 19 49
M  V30 88 1 20 66
M  V30 89 1 22 82
M  V30 90 1 23 55
M  V30 91 1 24 87
M  V30 92 1 25 90
M  V30 93 1 27 63
M  V30 94 1 28 79
M  V30 95 1 29 69
M  V30 96 1 30 57
M  V30 97 1 32 84
M  V30 98 1 33 73
M  V30 99 1 34 78
M  V30 100 1 35 96
M  V30 101 1 37 46
M  V30 102 1 38 99
M  V30 103 1 39 60
M  V30 104 1 40 81
M  V30 105 1 42 51
M  V30 106 1 43 93
M  V30 107 1 44 75
M  V30 108 1 45 48
M  V30 END BOND
M  V30 END CTAB
M  END

$$$$
