
     RDKit          3D

  0  0  0  0  0  0  0  0  0  0999 V3000
M  V30 BEGIN CTAB
M  V30 COUNTS 99 108 0 0 0
M  V30 BEGIN ATOM
M  V30 1 Pd -3.0876 3.0638 -2.3964 0
M  V30 2 Pb -2.4794 3.6738 -1.8892 0
M  V30 3 Pb -3.8669 3.6399 -2.1619 0
M  V30 4 Pb -2.2995 2.4687 -2.5615 0
M  V30 5 Pb -3.7268 2.3961 -2.7753 0
M  V30 6 Pd 2.0243 -2.0528 -5.7909 0
M  V30 7 Pb 1.6094 -2.8404 -5.3150 0
M  V30 8 Pb 2.3743 -2.6727 -6.4901 0
M  V30 9 Pb 1.6780 -1.4354 -5.0842 0
M  V30 10 Pb 2.6546 -1.3483 -6.1105 0
M  V30 11 Pd 4.5263 -5.1918 -2.4918 0
M  V30 12 Pb 4.2673 -4.6663 -1.6824 0
M  V30 13 Pb 4.7870 -5.7020 -3.3088 0
M  V30 14 Pb 5.4752 -4.9157 -2.3572 0
M  V30 15 Pb 3.5565 -5.2625 -2.7676 0
M  V30 16 Pd 3.2218 2.4701 1.3118 0
M  V30 17 Pb 3.9362 1.7668 1.3024 0
M  V30 18 Pb 3.1862 2.4353 2.3141 0
M  V30 19 Pb 3.2626 2.5206 0.3160 0
M  V30 20 Pb 2.4981 3.1568 1.2614 0
M  V30 21 Pd -0.8285 -2.5737 2.5251 0
M  V30 22 Pb -1.7711 -2.5473 2.8487 0
M  V30 23 Pb -0.5211 -2.4183 3.4613 0
M  V30 24 Pb 0.1186 -2.6096 2.2094 0
M  V30 25 Pb -1.1581 -2.6856 1.5869 0
M  V30 26 Pd 5.6324 -0.2954 -2.6787 0
M  V30 27 Pb 5.0347 0.5016 -2.6401 0
M  V30 28 Pb 5.7018 -0.2886 -1.6774 0
M  V30 29 Pb 6.2347 -1.1002 -2.6914 0
M  V30 30 Pb 5.5372 -0.2536 -3.6789 0
M  V30 31 Pd -5.9297 3.4418 3.7078 0
M  V30 32 Pb -5.4402 4.2547 3.9972 0
M  V30 33 Pb -6.4408 2.6503 3.3646 0
M  V30 34 Pb -5.3928 2.8898 4.3768 0
M  V30 35 Pb -6.3284 3.9682 2.9626 0
M  V30 36 Pd -5.2635 -0.8577 0.2490 0
M  V30 37 Pb -6.0285 -0.3697 0.6723 0
M  V30 38 Pb -4.4871 -1.3660 -0.1269 0
M  V30 39 Pb -5.4373 -0.4759 -0.6625 0
M  V30 40 Pb -5.0863 -1.2591 1.1444 0
M  V30 41 Pd -0.4273 1.9269 5.5390 0
M  V30 42 Pb 0.5620 2.0251 5.4144 0
M  V30 43 Pb -1.4427 1.8398 5.6319 0
M  V30 44 Pb -0.5188 2.9140 5.5037 0
M  V30 45 Pb -0.3063 0.9388 5.6427 0
M  V30 46 Ag -4.9696 4.7848 4.2043 0
M  V30 47 Fe -2.7275 4.6960 4.9096 0
M  V30 48 Ag -0.7096 3.6270 5.4738 0
M  V30 49 Ag -4.4492 4.0258 -1.8993 0
M  V30 50 Fe -5.6563 4.3403 0.1139 0
M  V30 51 Ag -6.5057 4.3075 2.3241 0
M  V30 52 Ag 4.0824 -4.2625 -1.0790 0
M  V30 53 Fe 2.4535 -3.4547 0.4472 0
M  V30 54 Ag 0.8299 -2.6432 1.9773 0
M  V30 55 Ag 2.7079 -3.2189 -6.8657 0
M  V30 56 Fe 3.9963 -4.9588 -5.9458 0
M  V30 57 Ag 4.8802 -5.9472 -4.0029 0
M  V30 58 Ag -2.0218 4.0635 -1.4408 0
M  V30 59 Fe -0.0487 3.9682 -0.1234 0
M  V30 60 Ag 1.9505 3.6472 1.1168 0
M  V30 61 Ag -1.6788 2.0487 -2.6137 0
M  V30 62 Fe -0.1709 0.5286 -3.6431 0
M  V30 63 Ag 1.4299 -0.9785 -4.5436 0
M  V30 64 Ba 4.4658 1.2332 1.2685 0
M  V30 65 Ga 5.1100 0.4797 0.1703 0
M  V30 66 Ba 5.7558 -0.2754 -0.9257 0
M  V30 67 Ba 3.1941 2.4056 3.0669 0
M  V30 68 Ga 2.2270 2.2541 4.1750 0
M  V30 69 Ba 1.3037 2.1059 5.3204 0
M  V30 70 Ba -4.2459 1.8940 -2.9756 0
M  V30 71 Ga -4.9036 0.8272 -2.1933 0
M  V30 72 Ba -5.5313 -0.2243 -1.3666 0
M  V30 73 Ba 3.2814 2.5786 -0.4294 0
M  V30 74 Ga 3.9321 1.8394 -1.5226 0
M  V30 75 Ba 4.5848 1.0971 -2.6124 0
M  V30 76 Ba 3.2305 -0.8938 -6.2634 0
M  V30 77 Ga 4.3399 -0.4927 -5.3699 0
M  V30 78 Ba 5.4155 -0.1391 -4.4165 0
M  V30 79 Ba -6.8690 2.1162 3.0504 0
M  V30 80 Ga -6.7086 1.0359 2.0536 0
M  V30 81 Ba -6.5889 -0.0538 1.0614 0
M  V30 82 Ba -0.3183 -2.2741 4.1663 0
M  V30 83 Ga -0.2495 -1.0332 4.9590 0
M  V30 84 Ba -0.1809 0.2067 5.7533 0
M  V30 85 Ba 1.3886 -3.4492 -4.9148 0
M  V30 86 Ga 2.0987 -4.3571 -3.9671 0
M  V30 87 Ba 2.8390 -5.2457 -3.0242 0
M  V30 88 Ba -4.9787 2.4732 4.8751 0
M  V30 89 Ga -3.5585 2.1611 5.2473 0
M  V30 90 Ba -2.2023 1.7479 5.7399 0
M  V30 91 Ba -1.4259 -2.7443 0.8879 0
M  V30 92 Ga -2.6570 -2.2585 0.2335 0
M  V30 93 Ba -3.8997 -1.7562 -0.3858 0
M  V30 94 Ba -2.4792 -2.5230 3.0853 0
M  V30 95 Ga -3.7274 -2.0484 2.4697 0
M  V30 96 Ba -4.9501 -1.5614 1.8139 0
M  V30 97 Ba 6.1507 -4.5939 -2.3341 0
M  V30 98 Ga 6.4672 -3.1568 -2.4780 0
M  V30 99 Ba 6.6870 -1.7026 -2.6325 0
M  V30 END ATOM
M  V30 BEGIN BOND
M  V30 1 1 1 2
M  V30 2 1 1 3
M  V30 3 1 1 4
M  V30 4 1 1 5
M  V30 5 1 6 7
M  V30 6 1 6 8
M  V30 7 1 6 9
M  V30 8 1 6 10
M  V30 9 1 11 12
M  V30 10 1 11 13
M  V30 11 1 11 14
M  V30 12 1 11 15
M  V30 13 1 16 17
M  V30 14 1 16 18
M  V30 15 1 16 19
M  V30 16 1 16 20
M  V30 17 1 21 22
M  V30 18 1 21 23
M  V30 19 1 21 24
M  V30 20 1 21 25
M  V30 21 1 26 27
M  V30 22 1 26 28
M  V30 23 1 26 29
M  V30 24 1 26 30
M  V30 25 1 31 32
M  V30 26 1 31 33
M  V30 27 1 31 34
M  V30 28 1 31 35
M  V30 29 1 36 37
M  V30 30 1 36 38
M  V30 31 1 36 39
M  V30 32 1 36 40
M  V30 33 1 41 42
M  V30 34 1 41 43
M  V30 35 1 41 44
M  V30 36 1 41 45
M  V30 37 1 46 47
M  V30 38 1 47 48
M  V30 39 1 49 50
M  V30 40 1 50 51
M  V30 41 1 52 53
M  V30 42 1 53 54
M  V30 43 1 55 56
M  V30 44 1 56 57
M  V30 45 1 58 59
M  V30 46 1 59 60
M  V30 47 1 61 62
M  V30 48 1 62 63
M  V30 49 1 64 65
M  V30 50 1 65 66
M  V30 51 1 67 68
M  V30 52 1 68 69
M  V30 53 1 70 71
M  V30 54 1 71 72
M  V30 55 1 73 74
M  V30 56 1 74 75
M  V30 57 1 76 77
M  V30 58 1 77 78
M  V30 59 1 79 80
M  V30 60 1 80 81
M  V30 61 1 82 83
M  V30 62 1 83 84
M  V30 63 1 85 86
M  V30 64 1 86 87
M  V30 65 1 88 89
M  V30 66 1 89 90
M  V30 67 1 91 92
M  V30 68 1 92 93
M  V30 69 1 94 95
M  V30 70 1 95 96
M  V30 71 1 97 98
M  V30 72 1 98 99
M  V30 73 1 2 58
M  V30 74 1 3 49
M  V30 75 1 4 61
M  V30 76 1 5 70
M  V30 77 1 7 85
M  V30 78 1 8 55
M  V30 79 1 9 63
M  V30 80 1 10 76
M  V30 81 1 12 52
M  V30 82 1 13 57
M  V30 83 1 14 97
M  V30 84 1 15 87
M  V30 85 1 17 64
M  V30 86 1 18 67
M  V30 87 1 19 73
M  V30 88 1 20 60
M  V30 89 1 22 94
M  V30 90 1 23 82
M  V30 91 1 24 54
M  V30 92 1 25 91
M  V30 93 1 27 75
M  V30 94 1 28 66
M  V30 95 1 29 99
M  V30 96 1 30 78
M  V30 97 1 32 46
M  V30 98 1 33 79
M  V30 99 1 34 88
M  V30 100 1 35 51
M  V30 101 1 37 81
M  V30 102 1 38 93
M  V30 103 1 39 72
M  V30 104 1 40 96
M  V30 105 1 42 69
M  V30 106 1 43 90
M  V30 107 1 44 48
M  V30 108 1 45 84
M  V30 END BOND
M  V30 END CTAB
M  END

$$$$
