
     RDKit          3D

  0  0  0  0  0  0  0  0  0  0999 V3000
M  V30 BEGIN CTAB
M  V30 COUNTS 99 108 0 0 0
M  V30 BEGIN ATOM
M  V30 1 Pd -1.8594 -3.8809 0.3079 0
M  V30 2 Pb -1.9370 -4.8758 0.2756 0
M  V30 3 Pb -1.6292 -2.9149 0.4270 0
M  V30 4 Pb -2.1222 -3.8826 1.2720 0
M  V30 5 Pb -1.6087 -3.8649 -0.6645 0
M  V30 6 Pd -4.3322 5.5161 -2.6692 0
M  V30 7 Pb -3.5787 5.8480 -3.2408 0
M  V30 8 Pb -3.8673 5.7927 -1.8283 0
M  V30 9 Pb -4.7534 5.0303 -3.4339 0
M  V30 10 Pb -5.0754 5.1959 -2.0850 0
M  V30 11 Pd 5.6944 -0.9563 -0.9912 0
M  V30 12 Pb 5.2515 -1.7394 -1.4365 0
M  V30 13 Pb 5.4698 -0.3661 -1.7635 0
M  V30 14 Pb 6.0950 -0.1861 -0.4934 0
M  V30 15 Pb 5.9062 -1.5676 -0.2356 0
M  V30 16 Pd 3.8709 2.9951 2.5060 0
M  V30 17 Pb 4.7142 2.6299 2.1032 0
M  V30 18 Pb 3.8933 2.3089 3.2670 0
M  V30 19 Pb 3.7999 3.6641 1.7623 0
M  V30 20 Pb 3.0646 3.4064 2.9113 0
M  V30 21 Pd 1.0314 4.3103 -4.3708 0
M  V30 22 Pb 0.2777 4.9709 -4.4202 0
M  V30 23 Pb 1.8091 3.6848 -4.3666 0
M  V30 24 Pb 1.4839 4.8218 -3.6391 0
M  V30 25 Pb 0.5922 3.7201 -5.0477 0
M  V30 26 Pd 0.9719 -0.9420 6.0052 0
M  V30 27 Pb 1.8624 -0.4781 5.8145 0
M  V30 28 Pb 1.3523 -1.8674 5.9689 0
M  V30 29 Pb 0.0868 -1.3992 6.0221 0
M  V30 30 Pb 0.5281 -0.0566 6.0573 0
M  V30 31 Pd 2.0910 -6.6037 1.4786 0
M  V30 32 Pb 1.1777 -6.9538 1.2560 0
M  V30 33 Pb 1.9292 -6.6020 2.4624 0
M  V30 34 Pb 2.9817 -6.2146 1.6940 0
M  V30 35 Pb 2.2940 -6.4201 0.5160 0
M  V30 36 Pd -3.5378 -1.4402 -4.3675 0
M  V30 37 Pb -2.9396 -1.0235 -5.0502 0
M  V30 38 Pb -4.1025 -1.7820 -3.6175 0
M  V30 39 Pb -4.1864 -0.7098 -4.5919 0
M  V30 40 Pb -2.8449 -2.1221 -4.1217 0
M  V30 41 Pd -3.9964 0.9139 2.1607 0
M  V30 42 Pb -3.5893 1.8212 2.2831 0
M  V30 43 Pb -3.0914 0.5140 2.0289 0
M  V30 44 Pb -4.4118 0.0597 1.8564 0
M  V30 45 Pb -4.8798 1.3673 2.1003 0
M  V30 46 Ag 0.2885 3.2087 -5.5043 0
M  V30 47 Fe -1.0968 1.2841 -5.6272 0
M  V30 48 Ag -2.5161 -0.6160 -5.5148 0
M  V30 49 Ag 3.7006 4.1700 1.2136 0
M  V30 50 Fe 2.8005 4.7072 -0.9205 0
M  V30 51 Ag 1.8593 5.1249 -3.0635 0
M  V30 52 Ag 5.9993 -2.0862 0.2900 0
M  V30 53 Fe 4.9428 -4.0074 1.1835 0
M  V30 54 Ag 3.6237 -5.8633 1.8334 0
M  V30 55 Ag -5.5768 4.9321 -1.5976 0
M  V30 56 Fe -5.7874 3.4092 0.2045 0
M  V30 57 Ag -5.4612 1.7827 1.8944 0
M  V30 58 Ag -3.5595 5.8213 -1.1445 0
M  V30 59 Fe -3.3230 4.3349 0.6949 0
M  V30 60 Ag -3.3371 2.5283 2.2395 0
M  V30 61 Ag 4.9039 -2.3554 -1.6977 0
M  V30 62 Fe 3.6907 -4.3038 -1.0725 0
M  V30 63 Ag 2.5116 -6.1530 -0.1519 0
M  V30 64 Ag 2.4577 3.6164 3.2757 0
M  V30 65 Fe 1.0288 2.4835 4.7608 0
M  V30 66 Ag 0.2754 0.6349 6.0040 0
M  V30 67 Ag -5.0502 4.5343 -3.9118 0
M  V30 68 Fe -4.9236 2.2234 -4.4528 0
M  V30 69 Ag -4.5923 -0.1066 -4.7870 0
M  V30 70 Ag -2.2894 -3.8198 1.9993 0
M  V30 71 Fe -1.5680 -2.8734 4.0511 0
M  V30 72 Ag -0.5335 -1.7925 5.8909 0
M  V30 73 Ag -4.4555 -1.9963 -2.9928 0
M  V30 74 Fe -4.7052 -1.4225 -0.7044 0
M  V30 75 Ag -4.7005 -0.5249 1.4914 0
M  V30 76 Ag 1.5019 -2.6041 5.9493 0
M  V30 77 Fe 1.7162 -4.5917 4.6656 0
M  V30 78 Ag 1.9112 -6.4464 3.1941 0
M  V30 79 Ag 5.2911 0.0632 -2.3488 0
M  V30 80 Fe 3.8444 1.6505 -3.3571 0
M  V30 81 Ag 2.4083 3.2372 -4.3810 0
M  V30 82 Ba -3.0241 6.1253 -3.6665 0
M  V30 83 Ga -1.6441 5.7648 -4.0560 0
M  V30 84 Ba -0.2610 5.4912 -4.5011 0
M  V30 85 Ba -1.8964 -5.6232 0.3014 0
M  V30 86 Ga -0.7363 -6.4571 0.6749 0
M  V30 87 Ba 0.4872 -7.1865 1.0651 0
M  V30 88 Ba 3.9447 1.8119 3.8584 0
M  V30 89 Ga 3.1661 0.8521 4.7133 0
M  V30 90 Ba 2.5361 -0.1372 5.6530 0
M  V30 91 Ba 6.3868 0.3779 -0.0927 0
M  V30 92 Ga 5.8537 1.3831 0.8505 0
M  V30 93 Ba 5.3666 2.4055 1.8001 0
M  V30 94 Ba -1.4200 -3.8769 -1.3948 0
M  V30 95 Ga -1.8815 -3.2396 -2.6481 0
M  V30 96 Ba -2.3178 -2.6201 -3.9194 0
M  V30 97 Ba -1.3835 -2.2292 0.6099 0
M  V30 98 Ga -1.9215 -0.9981 1.2194 0
M  V30 99 Ba -2.4204 0.2512 1.8252 0
M  V30 END ATOM
M  V30 BEGIN BOND
M  V30 1 1 1 2
M  V30 2 1 1 3
M  V30 3 1 1 4
M  V30 4 1 1 5
M  V30 5 1 6 7
M  V30 6 1 6 8
M  V30 7 1 6 9
M  V30 8 1 6 10
M  V30 9 1 11 12
M  V30 10 1 11 13
M  V30 11 1 11 14
M  V30 12 1 11 15
M  V30 13 1 16 17
M  V30 14 1 16 18
M  V30 15 1 16 19
M  V30 16 1 16 20
M  V30 17 1 21 22
M  V30 18 1 21 23
M  V30 19 1 21 24
M  V30 20 1 21 25
M  V30 21 1 26 27
M  V30 22 1 26 28
M  V30 23 1 26 29
M  V30 24 1 26 30
M  V30 25 1 31 32
M  V30 26 1 31 33
M  V30 27 1 31 34
M  V30 28 1 31 35
M  V30 29 1 36 37
M  V30 30 1 36 38
M  V30 31 1 36 39
M  V30 32 1 36 40
M  V30 33 1 41 42
M  V30 34 1 41 43
M  V30 35 1 41 44
M  V30 36 1 41 45
M  V30 37 1 46 47
M  V30 38 1 47 48
M  V30 39 1 49 50
M  V30 40 1 50 51
M  V30 41 1 52 53
M  V30 42 1 53 54
M  V30 43 1 55 56
M  V30 44 1 56 57
M  V30 45 1 58 59
M  V30 46 1 59 60
M  V30 47 1 61 62
M  V30 48 1 62 63
M  V30 49 1 64 65
M  V30 50 1 65 66
M  V30 51 1 67 68
M  V30 52 1 68 69
M  V30 53 1 70 71
M  V30 54 1 71 72
M  V30 55 1 73 74
M  V30 56 1 74 75
M  V30 57 1 76 77
M  V30 58 1 77 78
M  V30 59 1 79 80
M  V30 60 1 80 81
M  V30 61 1 82 83
M  V30 62 1 83 84
M  V30 63 1 85 86
M  V30 64 1 86 87
M  V30 65 1 88 89
M  V30 66 1 89 90
M  V30 67 1 91 92
M  V30 68 1 92 93
M  V30 69 1 94 95
M  V30 70 1 95 96
M  V30 71 1 97 98
M  V30 72 1 98 99
M  V30 73 1 2 85
M  V30 74 1 3 97
M  V30 75 1 4 70
M  V30 76 1 5 94
M  V30 77 1 7 82
M  V30 78 1 8 58
M  V30 79 1 9 67
M  V30 80 1 10 55
M  V30 81 1 12 61
M  V30 82 1 13 79
M  V30 83 1 14 91
M  V30 84 1 15 52
M  V30 85 1 17 93
M  V30 86 1 18 88
M  V30 87 1 19 49
M  V30 88 1 20 64
M  V30 89 1 22 84
M  V30 90 1 23 81
M  V30 91 1 24 51
M  V30 92 1 25 46
M  V30 93 1 27 90
M  V30 94 1 28 76
M  V30 95 1 29 72
M  V30 96 1 30 66
M  V30 97 1 32 87
M  V30 98 1 33 78
M  V30 99 1 34 54
M  V30 100 1 35 63
M  V30 101 1 37 48
M  V30 102 1 38 73
M  V30 103 1 39 69
M  V30 104 1 40 96
M  V30 105 1 42 60
M  V30 106 1 43 99
M  V30 107 1 44 75
M  V30 108 1 45 57
M  V30 END BOND
M  V30 END CTAB
M  END

$$$$
