
     RDKit          3D

  0  0  0  0  0  0  0  0  0  0999 V3000
M  V30 BEGIN CTAB
M  V30 COUNTS 99 108 0 0 0
M  V30 BEGIN ATOM
M  V30 1 Pd -1.6916 -3.4692 -1.9859 0
M  V30 2 Pb -1.8623 -4.2638 -1.4007 0
M  V30 3 Pb -1.5163 -2.7098 -2.6122 0
M  V30 4 Pb -2.6132 -3.0957 -1.8522 0
M  V30 5 Pb -0.7601 -3.8058 -2.1209 0
M  V30 6 Pd 4.7485 4.9159 -5.4448 0
M  V30 7 Pb 4.5020 5.1585 -4.5058 0
M  V30 8 Pb 3.8140 5.0823 -5.7524 0
M  V30 9 Pb 5.6333 4.5704 -5.1496 0
M  V30 10 Pb 4.9684 4.5845 -6.3599 0
M  V30 11 Pd -0.0460 -0.7118 5.5850 0
M  V30 12 Pb 0.2720 -1.5142 5.0761 0
M  V30 13 Pb 0.8266 -0.2553 5.4069 0
M  V30 14 Pb -0.3588 0.0820 6.1124 0
M  V30 15 Pb -0.8964 -1.1951 5.7929 0
M  V30 16 Pd -4.0063 2.8605 5.1194 0
M  V30 17 Pb -3.3037 2.7711 5.8251 0
M  V30 18 Pb -4.6977 2.5245 5.7494 0
M  V30 19 Pb -3.3136 3.2560 4.5178 0
M  V30 20 Pb -4.7040 2.8642 4.3772 0
M  V30 21 Pd 3.0689 2.6130 1.9107 0
M  V30 22 Pb 3.1883 3.2129 1.1157 0
M  V30 23 Pb 3.0088 2.0841 2.7597 0
M  V30 24 Pb 2.2420 3.1249 2.1394 0
M  V30 25 Pb 3.8442 2.0419 1.6407 0
M  V30 26 Pd -7.6934 -0.5049 2.1241 0
M  V30 27 Pb -8.1128 -0.4140 3.0206 0
M  V30 28 Pb -7.8566 -1.4866 2.1533 0
M  V30 29 Pb -7.2425 -0.6425 1.2402 0
M  V30 30 Pb -7.3813 0.4603 2.1851 0
M  V30 31 Pd -2.5049 -4.8840 3.3220 0
M  V30 32 Pb -2.3465 -5.3738 2.4665 0
M  V30 33 Pb -3.4811 -5.0625 3.2173 0
M  V30 34 Pb -2.6900 -4.3525 4.1485 0
M  V30 35 Pb -1.5338 -4.6593 3.4059 0
M  V30 36 Pd 5.6189 -1.7788 -3.6358 0
M  V30 37 Pb 5.8173 -1.5754 -2.6779 0
M  V30 38 Pb 5.3577 -1.9116 -4.5945 0
M  V30 39 Pb 6.2429 -1.0349 -3.8658 0
M  V30 40 Pb 4.9758 -2.4994 -3.3797 0
M  V30 41 Pd 2.4828 1.0347 -7.0748 0
M  V30 42 Pb 2.0554 1.9416 -7.0341 0
M  V30 43 Pb 1.7139 0.6684 -6.5498 0
M  V30 44 Pb 2.9501 0.1464 -7.0936 0
M  V30 45 Pb 3.2312 1.4430 -7.5953 0
M  V30 46 Ag 4.3001 5.3018 -3.7968 0
M  V30 47 Fe 3.7979 4.4764 -1.6244 0
M  V30 48 Ag 3.2805 3.7253 0.5711 0
M  V30 49 Ag 4.3820 1.5607 1.4359 0
M  V30 50 Fe 5.2234 0.0896 -0.2276 0
M  V30 51 Ag 5.9504 -1.3397 -1.9792 0
M  V30 52 Ag -2.7727 3.5816 4.1143 0
M  V30 53 Fe -0.5876 3.5358 3.1872 0
M  V30 54 Ag 1.5979 3.4876 2.2609 0
M  V30 55 Ag -5.2821 2.2430 6.1059 0
M  V30 56 Fe -7.0790 0.9207 5.3551 0
M  V30 57 Ag -8.2788 -0.2873 3.7301 0
M  V30 58 Ag 6.2278 4.1581 -4.9744 0
M  V30 59 Fe 6.6577 1.8869 -4.4537 0
M  V30 60 Ag 6.6745 -0.4337 -3.9730 0
M  V30 61 Ag -3.2821 -2.7529 -1.7978 0
M  V30 62 Fe -5.0841 -1.7866 -0.5832 0
M  V30 63 Ag -6.9102 -0.8110 0.5870 0
M  V30 64 Ag -0.0567 -4.0483 -2.2114 0
M  V30 65 Fe 2.2156 -3.5661 -2.7019 0
M  V30 66 Ag 4.4731 -3.0247 -3.1995 0
M  V30 67 Ag -1.4176 -2.1487 -3.0998 0
M  V30 68 Fe -0.0959 -0.8867 -4.6170 0
M  V30 69 Ag 1.1075 0.4598 -6.1598 0
M  V30 70 Ag -7.8287 -2.2277 2.2219 0
M  V30 71 Fe -6.1672 -3.8594 2.6583 0
M  V30 72 Ag -4.2176 -5.1286 3.1089 0
M  V30 73 Ba -1.9407 -4.8947 -0.9997 0
M  V30 74 Ga -2.1049 -5.2926 0.4114 0
M  V30 75 Ba -2.2707 -5.7279 1.8113 0
M  V30 76 Ba -1.5173 -1.5824 5.9574 0
M  V30 77 Ga -2.1844 -2.7554 5.3617 0
M  V30 78 Ba -2.8357 -3.9291 4.7502 0
M  V30 79 Ba 5.1031 4.2573 -7.0184 0
M  V30 80 Ga 4.4857 3.0363 -7.5610 0
M  V30 81 Ba 3.7734 1.8110 -7.9576 0
M  V30 82 Ba 3.1105 5.0776 -6.0074 0
M  V30 83 Ga 2.3760 3.9012 -6.5135 0
M  V30 84 Ba 1.7748 2.6392 -6.9893 0
M  V30 85 Ba 0.5107 -2.1233 4.7056 0
M  V30 86 Ga -0.1428 -3.2940 4.0870 0
M  V30 87 Ba -0.8144 -4.4572 3.4737 0
M  V30 88 Ba -5.2272 2.8788 3.8146 0
M  V30 89 Ga -6.1622 1.9819 3.0646 0
M  V30 90 Ba -7.1315 1.1822 2.2508 0
M  V30 91 Ba -0.5861 0.6730 6.5201 0
M  V30 92 Ga -1.6688 1.6740 6.4311 0
M  V30 93 Ba -2.7567 2.6679 6.3278 0
M  V30 94 Ba 5.1167 -2.0082 -5.3011 0
M  V30 95 Ga 4.2246 -1.2522 -6.2080 0
M  V30 96 Ba 3.3332 -0.5025 -7.1207 0
M  V30 97 Ba 1.5004 0.0605 5.3085 0
M  V30 98 Ga 2.2155 0.8931 4.3205 0
M  V30 99 Ba 3.0406 1.7195 3.4168 0
M  V30 END ATOM
M  V30 BEGIN BOND
M  V30 1 1 1 2
M  V30 2 1 1 3
M  V30 3 1 1 4
M  V30 4 1 1 5
M  V30 5 1 6 7
M  V30 6 1 6 8
M  V30 7 1 6 9
M  V30 8 1 6 10
M  V30 9 1 11 12
M  V30 10 1 11 13
M  V30 11 1 11 14
M  V30 12 1 11 15
M  V30 13 1 16 17
M  V30 14 1 16 18
M  V30 15 1 16 19
M  V30 16 1 16 20
M  V30 17 1 21 22
M  V30 18 1 21 23
M  V30 19 1 21 24
M  V30 20 1 21 25
M  V30 21 1 26 27
M  V30 22 1 26 28
M  V30 23 1 26 29
M  V30 24 1 26 30
M  V30 25 1 31 32
M  V30 26 1 31 33
M  V30 27 1 31 34
M  V30 28 1 31 35
M  V30 29 1 36 37
M  V30 30 1 36 38
M  V30 31 1 36 39
M  V30 32 1 36 40
M  V30 33 1 41 42
M  V30 34 1 41 43
M  V30 35 1 41 44
M  V30 36 1 41 45
M  V30 37 1 46 47
M  V30 38 1 47 48
M  V30 39 1 49 50
M  V30 40 1 50 51
M  V30 41 1 52 53
M  V30 42 1 53 54
M  V30 43 1 55 56
M  V30 44 1 56 57
M  V30 45 1 58 59
M  V30 46 1 59 60
M  V30 47 1 61 62
M  V30 48 1 62 63
M  V30 49 1 64 65
M  V30 50 1 65 66
M  V30 51 1 67 68
M  V30 52 1 68 69
M  V30 53 1 70 71
M  V30 54 1 71 72
M  V30 55 1 73 74
M  V30 56 1 74 75
M  V30 57 1 76 77
M  V30 58 1 77 78
M  V30 59 1 79 80
M  V30 60 1 80 81
M  V30 61 1 82 83
M  V30 62 1 83 84
M  V30 63 1 85 86
M  V30 64 1 86 87
M  V30 65 1 88 89
M  V30 66 1 89 90
M  V30 67 1 91 92
M  V30 68 1 92 93
M  V30 69 1 94 95
M  V30 70 1 95 96
M  V30 71 1 97 98
M  V30 72 1 98 99
M  V30 73 1 2 73
M  V30 74 1 3 67
M  V30 75 1 4 61
M  V30 76 1 5 64
M  V30 77 1 7 46
M  V30 78 1 8 82
M  V30 79 1 9 58
M  V30 80 1 10 79
M  V30 81 1 12 85
M  V30 82 1 13 97
M  V30 83 1 14 91
M  V30 84 1 15 76
M  V30 85 1 17 93
M  V30 86 1 18 55
M  V30 87 1 19 52
M  V30 88 1 20 88
M  V30 89 1 22 48
M  V30 90 1 23 99
M  V30 91 1 24 54
M  V30 92 1 25 49
M  V30 93 1 27 57
M  V30 94 1 28 70
M  V30 95 1 29 63
M  V30 96 1 30 90
M  V30 97 1 32 75
M  V30 98 1 33 72
M  V30 99 1 34 78
M  V30 100 1 35 87
M  V30 101 1 37 51
M  V30 102 1 38 94
M  V30 103 1 39 60
M  V30 104 1 40 66
M  V30 105 1 42 84
M  V30 106 1 43 69
M  V30 107 1 44 96
M  V30 108 1 45 81
M  V30 END BOND
M  V30 END CTAB
M  END

$$$$
