
     RDKit          3D

  0  0  0  0  0  0  0  0  0  0999 V3000
M  V30 BEGIN CTAB
M  V30 COUNTS 99 108 0 0 0
M  V30 BEGIN ATOM
M  V30 1 Pd -3.5102 1.8739 1.0138 0
M  V30 2 Pb -4.3164 2.0261 0.4337 0
M  V30 3 Pb -2.7409 1.7111 1.6260 0
M  V30 4 Pb -4.0384 1.3120 1.6479 0
M  V30 5 Pb -2.9338 2.4094 0.3903 0
M  V30 6 Pd 5.7871 4.0497 4.2631 0
M  V30 7 Pb 5.8562 3.1533 3.8284 0
M  V30 8 Pb 5.6512 4.9360 4.7041 0
M  V30 9 Pb 5.7180 4.4869 3.3682 0
M  V30 10 Pb 5.7171 3.6181 5.1605 0
M  V30 11 Pd -0.7631 -3.2957 -6.5464 0
M  V30 12 Pb -1.2765 -2.4400 -6.6055 0
M  V30 13 Pb 0.0895 -2.7969 -6.6570 0
M  V30 14 Pb -0.2268 -4.1294 -6.4039 0
M  V30 15 Pb -1.6343 -3.7468 -6.3574 0
M  V30 16 Pd 1.4828 -5.4042 -2.1272 0
M  V30 17 Pb 1.5517 -5.5863 -3.1115 0
M  V30 18 Pb 0.5945 -5.8632 -2.1108 0
M  V30 19 Pb 2.3927 -4.9776 -2.0994 0
M  V30 20 Pb 1.3580 -5.2565 -1.1441 0
M  V30 21 Pd 4.2404 -0.4016 -1.8940 0
M  V30 22 Pb 4.5535 -0.2979 -0.9508 0
M  V30 23 Pb 3.9924 -0.5009 -2.8533 0
M  V30 24 Pb 4.4108 -1.3900 -1.8533 0
M  V30 25 Pb 4.0515 0.5805 -1.9713 0
M  V30 26 Pd -4.3640 -5.1716 2.0977 0
M  V30 27 Pb -4.1353 -5.8138 1.3687 0
M  V30 28 Pb -5.2956 -5.0615 1.7603 0
M  V30 29 Pb -4.5657 -4.4181 2.7180 0
M  V30 30 Pb -3.3912 -5.1667 2.3338 0
M  V30 31 Pd -6.4033 -0.7065 -2.9596 0
M  V30 32 Pb -6.4986 0.1471 -2.4425 0
M  V30 33 Pb -6.9282 -1.2227 -2.2850 0
M  V30 34 Pb -6.2333 -1.5605 -3.4531 0
M  V30 35 Pb -5.8319 -0.2575 -3.6442 0
M  V30 36 Pd 1.7379 4.3838 0.3965 0
M  V30 37 Pb 2.2019 3.9554 -0.3829 0
M  V30 38 Pb 1.2793 4.8631 1.1512 0
M  V30 39 Pb 2.6441 4.7031 0.6912 0
M  V30 40 Pb 0.8407 4.1358 0.0128 0
M  V30 41 Pd 1.7234 4.5888 5.8811 0
M  V30 42 Pb 2.2748 5.3973 6.0734 0
M  V30 43 Pb 1.2508 3.7587 5.6014 0
M  V30 44 Pb 1.2016 5.0888 5.1899 0
M  V30 45 Pb 2.3135 4.0670 6.4968 0
M  V30 46 Ag 5.8676 2.4787 3.5039 0
M  V30 47 Fe 5.3504 1.1202 1.6272 0
M  V30 48 Ag 4.8266 -0.2256 -0.2568 0
M  V30 49 Ag -0.0658 -6.2077 -2.0234 0
M  V30 50 Fe -2.0324 -6.3206 -0.6987 0
M  V30 51 Ag -3.8827 -6.2058 0.7837 0
M  V30 52 Ag -2.3234 -3.9728 -6.1691 0
M  V30 53 Fe -4.2592 -3.2108 -5.0236 0
M  V30 54 Ag -6.0320 -2.1812 -3.8245 0
M  V30 55 Ag -1.6880 -1.8144 -6.5753 0
M  V30 56 Fe -3.5124 -0.7828 -5.4611 0
M  V30 57 Ag -5.3617 -0.0280 -4.1792 0
M  V30 58 Ag 1.1779 -5.1891 -0.4171 0
M  V30 59 Fe -0.6476 -5.1477 1.1053 0
M  V30 60 Ag -2.6432 -5.1348 2.3970 0
M  V30 61 Ag -4.3447 0.8459 2.1471 0
M  V30 62 Fe -4.6229 -1.4333 2.7427 0
M  V30 63 Ag -4.7462 -3.7804 3.0619 0
M  V30 64 Ag -2.2203 1.5658 2.1415 0
M  V30 65 Fe -0.6406 2.3219 3.7392 0
M  V30 66 Ag 0.9242 3.1535 5.3137 0
M  V30 67 Ag -5.9489 -4.8449 1.4703 0
M  V30 68 Fe -6.7864 -3.3096 -0.1318 0
M  V30 69 Ag -7.2549 -1.6873 -1.7976 0
M  V30 70 Ag 0.7252 -2.4110 -6.6536 0
M  V30 71 Fe 2.3313 -1.4602 -5.1957 0
M  V30 72 Ag 3.8192 -0.5849 -3.5739 0
M  V30 73 Ba -4.9381 2.1525 0.0248 0
M  V30 74 Ga -5.7267 1.4573 -1.0170 0
M  V30 75 Ba -6.5413 0.7936 -2.0594 0
M  V30 76 Ba 3.9058 1.3078 -2.1014 0
M  V30 77 Ga 3.2250 2.4660 -1.4834 0
M  V30 78 Ba 2.5812 3.6986 -0.9806 0
M  V30 79 Ba 3.0927 -4.6992 -2.0454 0
M  V30 80 Ga 3.7826 -3.3923 -1.9520 0
M  V30 81 Ba 4.5515 -2.1304 -1.8541 0
M  V30 82 Ba 5.5434 3.3328 5.8298 0
M  V30 83 Ga 4.2201 3.4463 6.4649 0
M  V30 84 Ba 2.8310 3.6912 6.8874 0
M  V30 85 Ba 5.4653 5.5703 5.0557 0
M  V30 86 Ga 4.1552 5.8779 5.6484 0
M  V30 87 Ba 2.7763 5.9446 6.1543 0
M  V30 88 Ba 0.2258 -4.7150 -6.2715 0
M  V30 89 Ga 0.8919 -5.2400 -5.0598 0
M  V30 90 Ba 1.5560 -5.7599 -3.8448 0
M  V30 91 Ba 5.6046 4.8251 2.7098 0
M  V30 92 Ga 4.4581 4.8746 1.7781 0
M  V30 93 Ba 3.3430 4.9630 0.8119 0
M  V30 94 Ba -2.5050 2.7951 -0.0949 0
M  V30 95 Ga -1.1455 3.3811 -0.1547 0
M  V30 96 Ba 0.1843 4.0069 -0.3407 0
M  V30 97 Ba 0.9124 5.2477 1.6871 0
M  V30 98 Ga 0.8806 5.3344 3.1629 0
M  V30 99 Ba 0.8325 5.4372 4.6372 0
M  V30 END ATOM
M  V30 BEGIN BOND
M  V30 1 1 1 2
M  V30 2 1 1 3
M  V30 3 1 1 4
M  V30 4 1 1 5
M  V30 5 1 6 7
M  V30 6 1 6 8
M  V30 7 1 6 9
M  V30 8 1 6 10
M  V30 9 1 11 12
M  V30 10 1 11 13
M  V30 11 1 11 14
M  V30 12 1 11 15
M  V30 13 1 16 17
M  V30 14 1 16 18
M  V30 15 1 16 19
M  V30 16 1 16 20
M  V30 17 1 21 22
M  V30 18 1 21 23
M  V30 19 1 21 24
M  V30 20 1 21 25
M  V30 21 1 26 27
M  V30 22 1 26 28
M  V30 23 1 26 29
M  V30 24 1 26 30
M  V30 25 1 31 32
M  V30 26 1 31 33
M  V30 27 1 31 34
M  V30 28 1 31 35
M  V30 29 1 36 37
M  V30 30 1 36 38
M  V30 31 1 36 39
M  V30 32 1 36 40
M  V30 33 1 41 42
M  V30 34 1 41 43
M  V30 35 1 41 44
M  V30 36 1 41 45
M  V30 37 1 46 47
M  V30 38 1 47 48
M  V30 39 1 49 50
M  V30 40 1 50 51
M  V30 41 1 52 53
M  V30 42 1 53 54
M  V30 43 1 55 56
M  V30 44 1 56 57
M  V30 45 1 58 59
M  V30 46 1 59 60
M  V30 47 1 61 62
M  V30 48 1 62 63
M  V30 49 1 64 65
M  V30 50 1 65 66
M  V30 51 1 67 68
M  V30 52 1 68 69
M  V30 53 1 70 71
M  V30 54 1 71 72
M  V30 55 1 73 74
M  V30 56 1 74 75
M  V30 57 1 76 77
M  V30 58 1 77 78
M  V30 59 1 79 80
M  V30 60 1 80 81
M  V30 61 1 82 83
M  V30 62 1 83 84
M  V30 63 1 85 86
M  V30 64 1 86 87
M  V30 65 1 88 89
M  V30 66 1 89 90
M  V30 67 1 91 92
M  V30 68 1 92 93
M  V30 69 1 94 95
M  V30 70 1 95 96
M  V30 71 1 97 98
M  V30 72 1 98 99
M  V30 73 1 2 73
M  V30 74 1 3 64
M  V30 75 1 4 61
M  V30 76 1 5 94
M  V30 77 1 7 46
M  V30 78 1 8 85
M  V30 79 1 9 91
M  V30 80 1 10 82
M  V30 81 1 12 55
M  V30 82 1 13 70
M  V30 83 1 14 88
M  V30 84 1 15 52
M  V30 85 1 17 90
M  V30 86 1 18 49
M  V30 87 1 19 79
M  V30 88 1 20 58
M  V30 89 1 22 48
M  V30 90 1 23 72
M  V30 91 1 24 81
M  V30 92 1 25 76
M  V30 93 1 27 51
M  V30 94 1 28 67
M  V30 95 1 29 63
M  V30 96 1 30 60
M  V30 97 1 32 75
M  V30 98 1 33 69
M  V30 99 1 34 54
M  V30 100 1 35 57
M  V30 101 1 37 78
M  V30 102 1 38 97
M  V30 103 1 39 93
M  V30 104 1 40 96
M  V30 105 1 42 87
M  V30 106 1 43 66
M  V30 107 1 44 99
M  V30 108 1 45 84
M  V30 END BOND
M  V30 END CTAB
M  END

$$$$
