
     RDKit          3D

  0  0  0  0  0  0  0  0  0  0999 V3000
M  V30 BEGIN CTAB
M  V30 COUNTS 99 108 0 0 0
M  V30 BEGIN ATOM
M  V30 1 Pd 2.9742 -3.1514 -1.3118 0
M  V30 2 Pb 2.6283 -3.7546 -0.5974 0
M  V30 3 Pb 3.7384 -2.9568 -0.7063 0
M  V30 4 Pb 2.1959 -3.4209 -1.8825 0
M  V30 5 Pb 3.3143 -2.4867 -1.9814 0
M  V30 6 Pd -1.6546 -2.0013 -4.8560 0
M  V30 7 Pb -2.1348 -1.3897 -5.4838 0
M  V30 8 Pb -1.0045 -1.2567 -4.6810 0
M  V30 9 Pb -1.1288 -2.6448 -4.2983 0
M  V30 10 Pb -2.3705 -2.6975 -4.9635 0
M  V30 11 Pd -3.2510 2.3497 -3.7366 0
M  V30 12 Pb -3.2407 2.4515 -2.7438 0
M  V30 13 Pb -2.2559 2.2538 -3.7805 0
M  V30 14 Pb -4.2386 2.2430 -3.6823 0
M  V30 15 Pb -3.2951 2.1219 -4.7035 0
M  V30 16 Pd -3.0973 -4.0410 2.7679 0
M  V30 17 Pb -4.0248 -3.6777 2.6672 0
M  V30 18 Pb -2.8532 -3.3536 3.4588 0
M  V30 19 Pb -3.3186 -4.7349 2.0832 0
M  V30 20 Pb -2.1683 -4.4000 2.7860 0
M  V30 21 Pd -0.6111 4.3032 1.0103 0
M  V30 22 Pb 0.1286 4.8658 1.3560 0
M  V30 23 Pb -1.1405 4.4975 1.8350 0
M  V30 24 Pb -1.3760 3.7588 0.6774 0
M  V30 25 Pb -0.0391 4.0246 0.2124 0
M  V30 26 Pd -5.7484 -3.7185 -1.6672 0
M  V30 27 Pb -5.2923 -4.5266 -1.3018 0
M  V30 28 Pb -6.0296 -3.4808 -0.7335 0
M  V30 29 Pb -6.1961 -2.8937 -2.0078 0
M  V30 30 Pb -5.4151 -3.9345 -2.5913 0
M  V30 31 Pd 6.1854 1.6843 3.4914 0
M  V30 32 Pb 6.1213 2.6542 3.6979 0
M  V30 33 Pb 6.8019 1.8383 2.7179 0
M  V30 34 Pb 5.4849 1.4898 4.2055 0
M  V30 35 Pb 6.2319 0.7234 3.2455 0
M  V30 36 Pd 4.6095 2.2014 -1.1663 0
M  V30 37 Pb 5.5623 1.9875 -0.9492 0
M  V30 38 Pb 3.6403 2.4747 -1.3294 0
M  V30 39 Pb 4.5168 1.4182 -1.7919 0
M  V30 40 Pb 4.7260 2.9885 -0.5750 0
M  V30 41 Pd 0.6008 2.4702 5.4404 0
M  V30 42 Pb 0.0693 1.6191 5.4985 0
M  V30 43 Pb 1.4850 1.9828 5.5702 0
M  V30 44 Pb 1.1061 3.3254 5.4066 0
M  V30 45 Pb -0.2382 2.9855 5.2673 0
M  V30 46 Ag 5.9092 3.3371 3.8871 0
M  V30 47 Fe 3.8230 4.0950 4.6757 0
M  V30 48 Ag 1.5745 3.8971 5.3513 0
M  V30 49 Ag 4.2749 -2.8565 -0.1997 0
M  V30 50 Fe 5.3187 -1.4673 1.4084 0
M  V30 51 Ag 6.2673 0.0320 2.9759 0
M  V30 52 Ag -2.6479 -2.8619 3.9932 0
M  V30 53 Fe -1.4873 -0.9190 4.7312 0
M  V30 54 Ag -0.3635 1.0044 5.5703 0
M  V30 55 Ag 2.3545 -4.1519 -0.0272 0
M  V30 56 Fe 0.4963 -4.4925 1.4047 0
M  V30 57 Ag -1.4746 -4.6638 2.7106 0
M  V30 58 Ag 0.7571 5.2031 1.5443 0
M  V30 59 Fe 2.9878 4.7484 0.9562 0
M  V30 60 Ag 4.7145 3.5745 -0.1259 0
M  V30 61 Ag -4.9356 1.9928 -3.6094 0
M  V30 62 Fe -5.9313 -0.0550 -2.9552 0
M  V30 63 Ag -6.4867 -2.2459 -2.2430 0
M  V30 64 Ba -4.7203 -3.4312 2.5248 0
M  V30 65 Ga -5.4900 -3.3524 1.2644 0
M  V30 66 Ba -6.2117 -3.2972 -0.0254 0
M  V30 67 Ba -3.2998 2.4526 -1.9976 0
M  V30 68 Ga -2.5969 2.9342 -0.7977 0
M  V30 69 Ba -1.9752 3.3687 0.4635 0
M  V30 70 Ba 3.5814 -1.9697 -2.4595 0
M  V30 71 Ga 4.0103 -0.5558 -2.3502 0
M  V30 72 Ba 4.4515 0.8574 -2.2955 0
M  V30 73 Ba -3.4751 -5.2508 1.5623 0
M  V30 74 Ga -4.2044 -5.2142 0.2834 0
M  V30 75 Ba -4.9468 -5.1081 -0.9840 0
M  V30 76 Ba -2.9257 -3.2055 -5.0199 0
M  V30 77 Ga -4.0368 -3.6471 -4.1438 0
M  V30 78 Ba -5.1534 -4.1005 -3.2808 0
M  V30 79 Ba 7.2136 1.8656 2.0896 0
M  V30 80 Ga 6.7997 1.8887 0.6714 0
M  V30 81 Ba 6.2698 1.9169 -0.7075 0
M  V30 82 Ba -0.5809 -0.6496 -4.5370 0
M  V30 83 Ga -0.9827 0.7305 -4.1849 0
M  V30 84 Ba -1.5323 2.0609 -3.8425 0
M  V30 85 Ba -1.5138 4.5792 2.4792 0
M  V30 86 Ga -1.2268 4.0190 3.8118 0
M  V30 87 Ba -0.8347 3.4045 5.0928 0
M  V30 88 Ba -2.4520 -0.9041 -5.9581 0
M  V30 89 Ga -2.9132 0.4774 -5.7620 0
M  V30 90 Ba -3.3275 1.8370 -5.3900 0
M  V30 91 Ba 4.9686 1.2984 4.7417 0
M  V30 92 Ga 3.5472 1.5164 5.1581 0
M  V30 93 Ba 2.1562 1.6327 5.6992 0
M  V30 94 Ba 0.3538 3.7939 -0.4084 0
M  V30 95 Ga 1.6735 3.2483 -0.8631 0
M  V30 96 Ba 2.9220 2.7022 -1.4870 0
M  V30 97 Ba 1.6058 -3.7153 -2.2441 0
M  V30 98 Ga 0.4477 -3.3637 -3.0902 0
M  V30 99 Ba -0.7501 -3.1811 -3.9345 0
M  V30 END ATOM
M  V30 BEGIN BOND
M  V30 1 1 1 2
M  V30 2 1 1 3
M  V30 3 1 1 4
M  V30 4 1 1 5
M  V30 5 1 6 7
M  V30 6 1 6 8
M  V30 7 1 6 9
M  V30 8 1 6 10
M  V30 9 1 11 12
M  V30 10 1 11 13
M  V30 11 1 11 14
M  V30 12 1 11 15
M  V30 13 1 16 17
M  V30 14 1 16 18
M  V30 15 1 16 19
M  V30 16 1 16 20
M  V30 17 1 21 22
M  V30 18 1 21 23
M  V30 19 1 21 24
M  V30 20 1 21 25
M  V30 21 1 26 27
M  V30 22 1 26 28
M  V30 23 1 26 29
M  V30 24 1 26 30
M  V30 25 1 31 32
M  V30 26 1 31 33
M  V30 27 1 31 34
M  V30 28 1 31 35
M  V30 29 1 36 37
M  V30 30 1 36 38
M  V30 31 1 36 39
M  V30 32 1 36 40
M  V30 33 1 41 42
M  V30 34 1 41 43
M  V30 35 1 41 44
M  V30 36 1 41 45
M  V30 37 1 46 47
M  V30 38 1 47 48
M  V30 39 1 49 50
M  V30 40 1 50 51
M  V30 41 1 52 53
M  V30 42 1 53 54
M  V30 43 1 55 56
M  V30 44 1 56 57
M  V30 45 1 58 59
M  V30 46 1 59 60
M  V30 47 1 61 62
M  V30 48 1 62 63
M  V30 49 1 64 65
M  V30 50 1 65 66
M  V30 51 1 67 68
M  V30 52 1 68 69
M  V30 53 1 70 71
M  V30 54 1 71 72
M  V30 55 1 73 74
M  V30 56 1 74 75
M  V30 57 1 76 77
M  V30 58 1 77 78
M  V30 59 1 79 80
M  V30 60 1 80 81
M  V30 61 1 82 83
M  V30 62 1 83 84
M  V30 63 1 85 86
M  V30 64 1 86 87
M  V30 65 1 88 89
M  V30 66 1 89 90
M  V30 67 1 91 92
M  V30 68 1 92 93
M  V30 69 1 94 95
M  V30 70 1 95 96
M  V30 71 1 97 98
M  V30 72 1 98 99
M  V30 73 1 2 55
M  V30 74 1 3 49
M  V30 75 1 4 97
M  V30 76 1 5 70
M  V30 77 1 7 88
M  V30 78 1 8 82
M  V30 79 1 9 99
M  V30 80 1 10 76
M  V30 81 1 12 67
M  V30 82 1 13 84
M  V30 83 1 14 61
M  V30 84 1 15 90
M  V30 85 1 17 64
M  V30 86 1 18 52
M  V30 87 1 19 73
M  V30 88 1 20 57
M  V30 89 1 22 58
M  V30 90 1 23 85
M  V30 91 1 24 69
M  V30 92 1 25 94
M  V30 93 1 27 75
M  V30 94 1 28 66
M  V30 95 1 29 63
M  V30 96 1 30 78
M  V30 97 1 32 46
M  V30 98 1 33 79
M  V30 99 1 34 91
M  V30 100 1 35 51
M  V30 101 1 37 81
M  V30 102 1 38 96
M  V30 103 1 39 72
M  V30 104 1 40 60
M  V30 105 1 42 54
M  V30 106 1 43 93
M  V30 107 1 44 48
M  V30 108 1 45 87
M  V30 END BOND
M  V30 END CTAB
M  END

$$$$
