
     RDKit          3D

  0  0  0  0  0  0  0  0  0  0999 V3000
M  V30 BEGIN CTAB
M  V30 COUNTS 99 108 0 0 0
M  V30 BEGIN ATOM
M  V30 1 Pd -4.5826 1.9570 -2.8871 0
M  V30 2 Pb -5.3840 1.7429 -2.3247 0
M  V30 3 Pb -3.8061 2.2113 -3.4612 0
M  V30 4 Pb -4.6291 2.9017 -2.5699 0
M  V30 5 Pb -4.4843 1.0008 -3.1705 0
M  V30 6 Pd 6.8712 -2.3299 -3.8019 0
M  V30 7 Pb 6.9552 -2.3762 -2.8053 0
M  V30 8 Pb 6.7791 -2.2859 -4.7893 0
M  V30 9 Pb 6.6316 -3.2900 -3.9056 0
M  V30 10 Pb 6.8495 -1.3287 -3.8009 0
M  V30 11 Pd -1.5070 -2.2190 6.3299 0
M  V30 12 Pb -2.1407 -1.5129 6.6242 0
M  V30 13 Pb -0.8676 -2.8999 5.9815 0
M  V30 14 Pb -0.8359 -1.8551 6.9723 0
M  V30 15 Pb -2.1788 -2.4829 5.6353 0
M  V30 16 Pd 1.7430 2.0076 5.7660 0
M  V30 17 Pb 1.4391 1.3971 6.5012 0
M  V30 18 Pb 0.8975 2.5886 5.8248 0
M  V30 19 Pb 2.5520 1.4289 5.6473 0
M  V30 20 Pb 2.1082 2.6082 5.0687 0
M  V30 21 Pd 4.2845 -3.4690 1.4134 0
M  V30 22 Pb 5.0463 -3.1741 0.8301 0
M  V30 23 Pb 3.5924 -3.8075 2.0481 0
M  V30 24 Pb 4.6509 -2.9123 2.1593 0
M  V30 25 Pb 3.8111 -3.9716 0.6880 0
M  V30 26 Pd -2.5718 5.4393 3.1350 0
M  V30 27 Pb -2.1645 5.0245 3.9811 0
M  V30 28 Pb -3.5246 5.2975 3.4135 0
M  V30 29 Pb -2.9497 5.7607 2.2703 0
M  V30 30 Pb -1.6624 5.6348 2.7957 0
M  V30 31 Pd -6.2456 1.6217 2.5414 0
M  V30 32 Pb -6.5881 1.6152 1.5988 0
M  V30 33 Pb -6.3792 2.6017 2.6760 0
M  V30 34 Pb -6.0304 0.6456 2.4914 0
M  V30 35 Pb -5.9350 1.6000 3.4858 0
M  V30 36 Pd 0.2015 -3.7515 -5.1978 0
M  V30 37 Pb 0.3808 -4.1591 -4.3021 0
M  V30 38 Pb 0.0594 -3.3272 -6.0978 0
M  V30 39 Pb 1.0935 -4.1484 -5.4219 0
M  V30 40 Pb -0.6984 -3.4011 -4.9248 0
M  V30 41 Pd 1.8409 0.7342 -7.2931 0
M  V30 42 Pb 2.5537 0.1799 -7.7048 0
M  V30 43 Pb 1.1381 1.3074 -6.8762 0
M  V30 44 Pb 1.1541 0.1323 -7.7003 0
M  V30 45 Pb 2.5687 1.2028 -6.7818 0
M  V30 46 Ag 3.3512 -4.3339 0.2157 0
M  V30 47 Fe 1.9866 -4.4101 -1.7291 0
M  V30 48 Ag 0.6234 -4.4929 -3.6746 0
M  V30 49 Ag 3.1465 0.9892 5.5120 0
M  V30 50 Fe 4.0757 -0.7374 4.1692 0
M  V30 51 Ag 4.8429 -2.4684 2.7333 0
M  V30 52 Ag -2.6952 -2.5870 5.0990 0
M  V30 53 Fe -4.2920 -1.4545 3.7510 0
M  V30 54 Ag -5.8024 -0.0677 2.5489 0
M  V30 55 Ag 6.6700 -0.6067 -3.9181 0
M  V30 56 Fe 4.9850 0.6008 -5.0900 0
M  V30 57 Ag 3.1563 1.4356 -6.3672 0
M  V30 58 Ag 6.6267 -2.2352 -5.5133 0
M  V30 59 Fe 4.9890 -1.3166 -6.9465 0
M  V30 60 Ag 3.1366 -0.2228 -7.9223 0
M  V30 61 Ag -2.6305 -0.9697 6.7526 0
M  V30 62 Fe -4.2078 0.3765 5.6134 0
M  V30 63 Ag -5.6904 1.5444 4.1863 0
M  V30 64 Ag 2.2853 3.0948 4.5444 0
M  V30 65 Fe 1.0114 4.6176 3.2872 0
M  V30 66 Ag -0.9557 5.7030 2.5983 0
M  V30 67 Ag 6.2776 -3.9048 -4.1383 0
M  V30 68 Fe 4.0567 -4.3877 -4.8284 0
M  V30 69 Ag 1.7616 -4.4953 -5.4338 0
M  V30 70 Ag -4.6156 3.5939 -2.2884 0
M  V30 71 Fe -3.9801 4.8834 -0.4028 0
M  V30 72 Ag -3.2536 5.9130 1.6056 0
M  V30 73 Ag -4.3760 0.2838 -3.3708 0
M  V30 74 Fe -2.8769 -1.4308 -4.0559 0
M  V30 75 Ag -1.3853 -3.1521 -4.7407 0
M  V30 76 Ag -3.2399 2.4414 -3.8936 0
M  V30 77 Fe -1.3116 2.0574 -5.2227 0
M  V30 78 Ag 0.6214 1.7497 -6.5646 0
M  V30 79 Ag -0.3984 -3.3913 5.6713 0
M  V30 80 Fe 1.3564 -3.7581 4.1177 0
M  V30 81 Ag 3.1096 -4.0777 2.5519 0
M  V30 82 Ba 7.0534 -2.3862 -2.0607 0
M  V30 83 Ga 6.2971 -2.6893 -0.8275 0
M  V30 84 Ba 5.6812 -2.9517 0.4901 0
M  V30 85 Ba -6.0083 1.6262 -1.9213 0
M  V30 86 Ga -6.4025 1.5985 -0.4966 0
M  V30 87 Ba -6.8732 1.5564 0.9043 0
M  V30 88 Ba 0.2589 3.0236 5.9063 0
M  V30 89 Ga -0.7645 3.8554 5.1791 0
M  V30 90 Ba -1.8712 4.7176 4.6309 0
M  V30 91 Ba -0.3613 -1.5051 7.4329 0
M  V30 92 Ga 0.4640 -0.2942 7.2542 0
M  V30 93 Ba 1.2820 0.9195 7.0619 0
M  V30 94 Ba -0.0893 -2.9832 -6.7535 0
M  V30 95 Ga 0.2837 -1.6937 -7.3757 0
M  V30 96 Ba 0.6866 -0.3950 -7.9590 0
M  V30 97 Ba -4.2717 5.2639 3.5086 0
M  V30 98 Ga -5.3491 4.2983 3.2058 0
M  V30 99 Ba -6.4107 3.3158 2.9015 0
M  V30 END ATOM
M  V30 BEGIN BOND
M  V30 1 1 1 2
M  V30 2 1 1 3
M  V30 3 1 1 4
M  V30 4 1 1 5
M  V30 5 1 6 7
M  V30 6 1 6 8
M  V30 7 1 6 9
M  V30 8 1 6 10
M  V30 9 1 11 12
M  V30 10 1 11 13
M  V30 11 1 11 14
M  V30 12 1 11 15
M  V30 13 1 16 17
M  V30 14 1 16 18
M  V30 15 1 16 19
M  V30 16 1 16 20
M  V30 17 1 21 22
M  V30 18 1 21 23
M  V30 19 1 21 24
M  V30 20 1 21 25
M  V30 21 1 26 27
M  V30 22 1 26 28
M  V30 23 1 26 29
M  V30 24 1 26 30
M  V30 25 1 31 32
M  V30 26 1 31 33
M  V30 27 1 31 34
M  V30 28 1 31 35
M  V30 29 1 36 37
M  V30 30 1 36 38
M  V30 31 1 36 39
M  V30 32 1 36 40
M  V30 33 1 41 42
M  V30 34 1 41 43
M  V30 35 1 41 44
M  V30 36 1 41 45
M  V30 37 1 46 47
M  V30 38 1 47 48
M  V30 39 1 49 50
M  V30 40 1 50 51
M  V30 41 1 52 53
M  V30 42 1 53 54
M  V30 43 1 55 56
M  V30 44 1 56 57
M  V30 45 1 58 59
M  V30 46 1 59 60
M  V30 47 1 61 62
M  V30 48 1 62 63
M  V30 49 1 64 65
M  V30 50 1 65 66
M  V30 51 1 67 68
M  V30 52 1 68 69
M  V30 53 1 70 71
M  V30 54 1 71 72
M  V30 55 1 73 74
M  V30 56 1 74 75
M  V30 57 1 76 77
M  V30 58 1 77 78
M  V30 59 1 79 80
M  V30 60 1 80 81
M  V30 61 1 82 83
M  V30 62 1 83 84
M  V30 63 1 85 86
M  V30 64 1 86 87
M  V30 65 1 88 89
M  V30 66 1 89 90
M  V30 67 1 91 92
M  V30 68 1 92 93
M  V30 69 1 94 95
M  V30 70 1 95 96
M  V30 71 1 97 98
M  V30 72 1 98 99
M  V30 73 1 2 85
M  V30 74 1 3 76
M  V30 75 1 4 70
M  V30 76 1 5 73
M  V30 77 1 7 82
M  V30 78 1 8 58
M  V30 79 1 9 67
M  V30 80 1 10 55
M  V30 81 1 12 61
M  V30 82 1 13 79
M  V30 83 1 14 91
M  V30 84 1 15 52
M  V30 85 1 17 93
M  V30 86 1 18 88
M  V30 87 1 19 49
M  V30 88 1 20 64
M  V30 89 1 22 84
M  V30 90 1 23 81
M  V30 91 1 24 51
M  V30 92 1 25 46
M  V30 93 1 27 90
M  V30 94 1 28 97
M  V30 95 1 29 72
M  V30 96 1 30 66
M  V30 97 1 32 87
M  V30 98 1 33 99
M  V30 99 1 34 54
M  V30 100 1 35 63
M  V30 101 1 37 48
M  V30 102 1 38 94
M  V30 103 1 39 69
M  V30 104 1 40 75
M  V30 105 1 42 60
M  V30 106 1 43 78
M  V30 107 1 44 96
M  V30 108 1 45 57
M  V30 END BOND
M  V30 END CTAB
M  END

$$$$
