
     RDKit          3D

  0  0  0  0  0  0  0  0  0  0999 V3000
M  V30 BEGIN CTAB
M  V30 COUNTS 99 108 0 0 0
M  V30 BEGIN ATOM
M  V30 1 Pd 1.1357 5.9304 -0.6860 0
M  V30 2 Pb 1.9210 5.6241 -0.1480 0
M  V30 3 Pb 0.3759 6.2942 -1.2237 0
M  V30 4 Pb 1.5868 5.5937 -1.5128 0
M  V30 5 Pb 0.6532 6.1956 0.1496 0
M  V30 6 Pd -5.3448 -0.0382 -1.0763 0
M  V30 7 Pb -4.5434 -0.6358 -1.1285 0
M  V30 8 Pb -6.1116 0.6190 -1.0597 0
M  V30 9 Pb -5.2622 0.0798 -0.0869 0
M  V30 10 Pb -5.4267 -0.0739 -2.0694 0
M  V30 11 Pd 2.8305 -5.4680 3.4704 0
M  V30 12 Pb 2.9455 -4.5644 3.8795 0
M  V30 13 Pb 1.9243 -5.5507 3.8843 0
M  V30 14 Pb 2.7233 -6.3529 3.0171 0
M  V30 15 Pb 3.7095 -5.3198 3.0162 0
M  V30 16 Pd 1.3282 -6.3265 -1.3382 0
M  V30 17 Pb 1.6034 -7.0182 -0.6713 0
M  V30 18 Pb 1.0792 -5.5852 -1.9641 0
M  V30 19 Pb 0.3706 -6.5208 -1.1263 0
M  V30 20 Pb 2.2812 -6.0859 -1.5175 0
M  V30 21 Pd -1.6967 -3.5995 1.6727 0
M  V30 22 Pb -1.8963 -3.1473 0.8037 0
M  V30 23 Pb -1.4787 -4.0742 2.5270 0
M  V30 24 Pb -1.9414 -4.4696 1.2467 0
M  V30 25 Pb -1.4020 -2.7241 2.0578 0
M  V30 26 Pd 4.6552 -0.2020 -3.4568 0
M  V30 27 Pb 3.7706 -0.6149 -3.6802 0
M  V30 28 Pb 5.5334 0.1828 -3.1730 0
M  V30 29 Pb 4.3246 0.7178 -3.6733 0
M  V30 30 Pb 4.9628 -1.1220 -3.2166 0
M  V30 31 Pd 6.2998 0.5239 1.3465 0
M  V30 32 Pb 6.0185 1.4790 1.4267 0
M  V30 33 Pb 6.7903 0.7284 0.4993 0
M  V30 34 Pb 6.5194 -0.4493 1.2716 0
M  V30 35 Pb 5.7724 0.2913 2.1620 0
M  V30 36 Pd -3.1094 3.8268 2.1837 0
M  V30 37 Pb -2.3900 3.1709 2.4081 0
M  V30 38 Pb -3.8498 4.4722 1.9798 0
M  V30 39 Pb -3.7392 3.0465 2.2209 0
M  V30 40 Pb -2.4636 4.5957 2.2017 0
M  V30 41 Pd -6.1465 5.3482 -2.1177 0
M  V30 42 Pb -6.7453 4.5917 -1.8274 0
M  V30 43 Pb -5.4409 6.0005 -2.3818 0
M  V30 44 Pb -6.0851 5.6577 -1.1682 0
M  V30 45 Pb -6.1745 4.9841 -3.0455 0
M  V30 46 Ag 2.5290 5.4221 0.2420 0
M  V30 47 Fe 4.1538 3.8089 0.8710 0
M  V30 48 Ag 5.7693 2.1824 1.4894 0
M  V30 49 Ag -1.1619 -2.0572 2.3058 0
M  V30 50 Fe -1.4842 0.2899 2.4742 0
M  V30 51 Ag -1.9094 2.6240 2.5849 0
M  V30 52 Ag 0.9707 -4.9908 -2.4115 0
M  V30 53 Fe 1.9500 -2.9643 -3.1767 0
M  V30 54 Ag 3.1318 -0.9953 -3.7910 0
M  V30 55 Ag 4.3461 -5.1183 2.6736 0
M  V30 56 Fe 5.5827 -3.2358 1.9183 0
M  V30 57 Ag 6.6077 -1.1946 1.2650 0
M  V30 58 Ag -5.5101 0.0928 -2.7883 0
M  V30 59 Fe -5.8702 2.2109 -3.7601 0
M  V30 60 Ag -6.1672 4.5475 -3.6464 0
M  V30 61 Ag 3.0807 -3.8691 4.1212 0
M  V30 62 Fe 4.1799 -1.8444 3.5528 0
M  V30 63 Ag 5.3622 0.0445 2.7373 0
M  V30 64 Ag 2.9679 -5.8263 -1.6654 0
M  V30 65 Fe 4.1643 -3.8910 -2.3423 0
M  V30 66 Ag 5.1210 -1.8301 -3.0297 0
M  V30 67 Ag 1.9211 5.2892 -2.1116 0
M  V30 68 Fe 3.0088 3.3775 -3.0099 0
M  V30 69 Ag 4.0832 1.4156 -3.8108 0
M  V30 70 Ag -0.1982 6.5937 -1.6011 0
M  V30 71 Fe -2.5113 6.5801 -2.1295 0
M  V30 72 Ag -4.8408 6.4127 -2.5470 0
M  V30 73 Ba -3.9266 -1.0504 -1.2374 0
M  V30 74 Ga -3.0056 -1.9389 -0.5028 0
M  V30 75 Ba -2.0245 -2.8398 0.1321 0
M  V30 76 Ba -0.3400 -6.6484 -0.9234 0
M  V30 77 Ga -1.2488 -5.9115 -0.0263 0
M  V30 78 Ba -2.0857 -5.1093 0.8845 0
M  V30 79 Ba -6.6874 1.1148 -1.0513 0
M  V30 80 Ga -6.9034 2.5587 -1.3341 0
M  V30 81 Ba -7.1613 3.9976 -1.6071 0
M  V30 82 Ba 2.6432 -6.9986 2.6440 0
M  V30 83 Ga 2.2295 -7.2930 1.2596 0
M  V30 84 Ba 1.8065 -7.5030 -0.1372 0
M  V30 85 Ba -5.2449 0.2306 0.6479 0
M  V30 86 Ga -4.6927 1.3336 1.4622 0
M  V30 87 Ba -4.1554 2.4235 2.3037 0
M  V30 88 Ba 0.2738 6.3707 0.7735 0
M  V30 89 Ga -0.8629 5.7650 1.4995 0
M  V30 90 Ba -1.9974 5.1865 2.2505 0
M  V30 91 Ba -4.3937 4.9759 1.8470 0
M  V30 92 Ga -5.2083 5.4125 0.6941 0
M  V30 93 Ba -6.0318 5.8615 -0.4476 0
M  V30 94 Ba 6.1810 0.4633 -2.9193 0
M  V30 95 Ga 6.6882 0.6823 -1.5517 0
M  V30 96 Ba 7.1263 0.8715 -0.1560 0
M  V30 97 Ba 1.2310 -5.5694 4.1690 0
M  V30 98 Ga -0.0498 -5.0201 3.6835 0
M  V30 99 Ba -1.3038 -4.4510 3.1530 0
M  V30 END ATOM
M  V30 BEGIN BOND
M  V30 1 1 1 2
M  V30 2 1 1 3
M  V30 3 1 1 4
M  V30 4 1 1 5
M  V30 5 1 6 7
M  V30 6 1 6 8
M  V30 7 1 6 9
M  V30 8 1 6 10
M  V30 9 1 11 12
M  V30 10 1 11 13
M  V30 11 1 11 14
M  V30 12 1 11 15
M  V30 13 1 16 17
M  V30 14 1 16 18
M  V30 15 1 16 19
M  V30 16 1 16 20
M  V30 17 1 21 22
M  V30 18 1 21 23
M  V30 19 1 21 24
M  V30 20 1 21 25
M  V30 21 1 26 27
M  V30 22 1 26 28
M  V30 23 1 26 29
M  V30 24 1 26 30
M  V30 25 1 31 32
M  V30 26 1 31 33
M  V30 27 1 31 34
M  V30 28 1 31 35
M  V30 29 1 36 37
M  V30 30 1 36 38
M  V30 31 1 36 39
M  V30 32 1 36 40
M  V30 33 1 41 42
M  V30 34 1 41 43
M  V30 35 1 41 44
M  V30 36 1 41 45
M  V30 37 1 46 47
M  V30 38 1 47 48
M  V30 39 1 49 50
M  V30 40 1 50 51
M  V30 41 1 52 53
M  V30 42 1 53 54
M  V30 43 1 55 56
M  V30 44 1 56 57
M  V30 45 1 58 59
M  V30 46 1 59 60
M  V30 47 1 61 62
M  V30 48 1 62 63
M  V30 49 1 64 65
M  V30 50 1 65 66
M  V30 51 1 67 68
M  V30 52 1 68 69
M  V30 53 1 70 71
M  V30 54 1 71 72
M  V30 55 1 73 74
M  V30 56 1 74 75
M  V30 57 1 76 77
M  V30 58 1 77 78
M  V30 59 1 79 80
M  V30 60 1 80 81
M  V30 61 1 82 83
M  V30 62 1 83 84
M  V30 63 1 85 86
M  V30 64 1 86 87
M  V30 65 1 88 89
M  V30 66 1 89 90
M  V30 67 1 91 92
M  V30 68 1 92 93
M  V30 69 1 94 95
M  V30 70 1 95 96
M  V30 71 1 97 98
M  V30 72 1 98 99
M  V30 73 1 2 46
M  V30 74 1 3 70
M  V30 75 1 4 67
M  V30 76 1 5 88
M  V30 77 1 7 73
M  V30 78 1 8 79
M  V30 79 1 9 85
M  V30 80 1 10 58
M  V30 81 1 12 61
M  V30 82 1 13 97
M  V30 83 1 14 82
M  V30 84 1 15 55
M  V30 85 1 17 84
M  V30 86 1 18 52
M  V30 87 1 19 76
M  V30 88 1 20 64
M  V30 89 1 22 75
M  V30 90 1 23 99
M  V30 91 1 24 78
M  V30 92 1 25 49
M  V30 93 1 27 54
M  V30 94 1 28 94
M  V30 95 1 29 69
M  V30 96 1 30 66
M  V30 97 1 32 48
M  V30 98 1 33 96
M  V30 99 1 34 57
M  V30 100 1 35 63
M  V30 101 1 37 51
M  V30 102 1 38 91
M  V30 103 1 39 87
M  V30 104 1 40 90
M  V30 105 1 42 81
M  V30 106 1 43 72
M  V30 107 1 44 93
M  V30 108 1 45 60
M  V30 END BOND
M  V30 END CTAB
M  END

$$$$
