
     RDKit          3D

  0  0  0  0  0  0  0  0  0  0999 V3000
M  V30 BEGIN CTAB
M  V30 COUNTS 99 108 0 0 0
M  V30 BEGIN ATOM
M  V30 1 Pd 6.4543 -0.9335 2.5127 0
M  V30 2 Pb 5.6394 -1.3400 2.9259 0
M  V30 3 Pb 6.8051 -0.7550 3.4310 0
M  V30 4 Pb 7.2581 -0.4636 2.1435 0
M  V30 5 Pb 6.1158 -1.1127 1.5856 0
M  V30 6 Pd 7.8015 3.4703 4.0985 0
M  V30 7 Pb 7.1367 3.8754 4.7248 0
M  V30 8 Pb 8.3625 2.9971 3.4189 0
M  V30 9 Pb 7.8990 2.6800 4.6980 0
M  V30 10 Pb 7.6401 4.2284 3.4701 0
M  V30 11 Pd -1.6637 -4.9390 -0.7514 0
M  V30 12 Pb -2.0362 -4.6907 0.1401 0
M  V30 13 Pb -1.3114 -5.0363 -1.6790 0
M  V30 14 Pb -2.5616 -5.3017 -0.9965 0
M  V30 15 Pb -0.7578 -4.5966 -0.4991 0
M  V30 16 Pd -8.5142 -2.7367 -2.2845 0
M  V30 17 Pb -8.5683 -2.9489 -3.2575 0
M  V30 18 Pb -8.4039 -2.4793 -1.3226 0
M  V30 19 Pb -8.7684 -1.7878 -2.5051 0
M  V30 20 Pb -8.1215 -3.6351 -2.1059 0
M  V30 21 Pd 1.0625 -0.6464 1.7927 0
M  V30 22 Pb 0.4705 -0.3101 1.0627 0
M  V30 23 Pb 0.8986 0.1972 2.3105 0
M  V30 24 Pb 1.2275 -1.4889 1.2801 0
M  V30 25 Pb 1.6588 -1.0125 2.5056 0
M  V30 26 Pd 3.2652 4.4806 2.5430 0
M  V30 27 Pb 3.5541 4.5788 3.4966 0
M  V30 28 Pb 3.0231 4.3915 1.5779 0
M  V30 29 Pb 4.0756 4.9994 2.2718 0
M  V30 30 Pb 2.4691 3.9390 2.8242 0
M  V30 31 Pd -4.4230 -0.5249 0.4000 0
M  V30 32 Pb -3.4980 -0.2852 0.1027 0
M  V30 33 Pb -4.7220 0.3412 -0.0090 0
M  V30 34 Pb -4.0984 -1.3511 0.8703 0
M  V30 35 Pb -5.3616 -0.7723 0.6520 0
M  V30 36 Pd 1.8092 0.2226 -3.8016 0
M  V30 37 Pb 1.0472 0.6433 -4.2966 0
M  V30 38 Pb 1.5611 -0.6794 -4.1542 0
M  V30 39 Pb 2.5644 -0.1983 -3.2931 0
M  V30 40 Pb 2.0092 1.1140 -3.3990 0
M  V30 41 Pd -5.8006 1.5973 -4.4743 0
M  V30 42 Pb -6.7235 1.3706 -4.1322 0
M  V30 43 Pb -6.0190 1.1132 -5.3182 0
M  V30 44 Pb -5.6031 2.0072 -3.5846 0
M  V30 45 Pb -4.8717 1.7768 -4.8012 0
M  V30 46 Ag -3.2526 -5.5561 -1.1332 0
M  V30 47 Fe -5.5227 -5.0223 -1.5690 0
M  V30 48 Ag -7.7271 -4.2604 -2.0017 0
M  V30 49 Ag 0.4778 0.9801 -4.6528 0
M  V30 50 Fe -1.8456 1.4348 -4.8568 0
M  V30 51 Ag -4.1714 1.8820 -5.0510 0
M  V30 52 Ag 5.8889 -1.2525 0.8813 0
M  V30 53 Fe 4.4837 -0.8619 -0.9974 0
M  V30 54 Ag 3.1249 -0.5381 -2.9223 0
M  V30 55 Ag 2.8931 4.3430 0.8418 0
M  V30 56 Fe 2.5030 3.0620 -1.1180 0
M  V30 57 Ag 2.1117 1.7825 -3.0786 0
M  V30 58 Ag -8.5118 -2.9472 -3.9986 0
M  V30 59 Fe -7.4725 -1.3654 -5.4067 0
M  V30 60 Ag -6.2699 0.6222 -5.8158 0
M  V30 61 Ag -0.9977 -4.9567 -2.3520 0
M  V30 62 Fe 0.1987 -3.2804 -3.5292 0
M  V30 63 Ag 1.3451 -1.3707 -4.3463 0
M  V30 64 Ba 7.4431 4.7781 3.0031 0
M  V30 65 Ga 6.0996 5.1238 2.5087 0
M  V30 66 Ba 4.7071 5.3610 2.0918 0
M  V30 67 Ba 7.0809 -0.5881 4.1070 0
M  V30 68 Ga 7.5260 0.6977 4.6664 0
M  V30 69 Ba 7.9324 2.0461 5.0910 0
M  V30 70 Ba -4.8853 1.0231 -0.2853 0
M  V30 71 Ga -5.1920 1.6379 -1.5932 0
M  V30 72 Ba -5.5022 2.2727 -2.8908 0
M  V30 73 Ba -8.9180 -1.0688 -2.6898 0
M  V30 74 Ga -8.1491 0.0570 -3.2828 0
M  V30 75 Ba -7.4196 1.2102 -3.8728 0
M  V30 76 Ba 7.8559 -0.0657 1.9212 0
M  V30 77 Ga 8.3399 1.2560 2.3686 0
M  V30 78 Ba 8.7138 2.5812 2.9023 0
M  V30 79 Ba 0.7477 0.8285 2.6927 0
M  V30 80 Ga 1.3361 2.1757 2.8559 0
M  V30 81 Ba 1.8768 3.5375 3.0586 0
M  V30 82 Ba 6.5729 4.1496 5.1353 0
M  V30 83 Ga 5.1832 4.4279 4.7253 0
M  V30 84 Ba 3.8285 4.6644 4.1906 0
M  V30 85 Ba -2.3485 -4.4356 0.7702 0
M  V30 86 Ga -3.1109 -3.1969 1.0278 0
M  V30 87 Ba -3.8713 -1.9528 1.2652 0
M  V30 88 Ba 0.0350 -0.0673 0.5048 0
M  V30 89 Ga -1.4071 -0.0837 0.1979 0
M  V30 90 Ba -2.8344 -0.0660 -0.1716 0
M  V30 91 Ba -0.0576 -4.3686 -0.3523 0
M  V30 92 Ga 0.6258 -3.2309 0.2921 0
M  V30 93 Ba 1.3797 -2.1280 0.9185 0
M  V30 94 Ba 5.0362 -1.6025 3.2865 0
M  V30 95 Ga 3.5747 -1.4687 3.1432 0
M  V30 96 Ba 2.1124 -1.3389 3.0044 0
M  V30 97 Ba -8.3030 -2.2553 -0.6118 0
M  V30 98 Ga -7.1847 -1.6197 0.1173 0
M  V30 99 Ba -6.0601 -0.9841 0.8366 0
M  V30 END ATOM
M  V30 BEGIN BOND
M  V30 1 1 1 2
M  V30 2 1 1 3
M  V30 3 1 1 4
M  V30 4 1 1 5
M  V30 5 1 6 7
M  V30 6 1 6 8
M  V30 7 1 6 9
M  V30 8 1 6 10
M  V30 9 1 11 12
M  V30 10 1 11 13
M  V30 11 1 11 14
M  V30 12 1 11 15
M  V30 13 1 16 17
M  V30 14 1 16 18
M  V30 15 1 16 19
M  V30 16 1 16 20
M  V30 17 1 21 22
M  V30 18 1 21 23
M  V30 19 1 21 24
M  V30 20 1 21 25
M  V30 21 1 26 27
M  V30 22 1 26 28
M  V30 23 1 26 29
M  V30 24 1 26 30
M  V30 25 1 31 32
M  V30 26 1 31 33
M  V30 27 1 31 34
M  V30 28 1 31 35
M  V30 29 1 36 37
M  V30 30 1 36 38
M  V30 31 1 36 39
M  V30 32 1 36 40
M  V30 33 1 41 42
M  V30 34 1 41 43
M  V30 35 1 41 44
M  V30 36 1 41 45
M  V30 37 1 46 47
M  V30 38 1 47 48
M  V30 39 1 49 50
M  V30 40 1 50 51
M  V30 41 1 52 53
M  V30 42 1 53 54
M  V30 43 1 55 56
M  V30 44 1 56 57
M  V30 45 1 58 59
M  V30 46 1 59 60
M  V30 47 1 61 62
M  V30 48 1 62 63
M  V30 49 1 64 65
M  V30 50 1 65 66
M  V30 51 1 67 68
M  V30 52 1 68 69
M  V30 53 1 70 71
M  V30 54 1 71 72
M  V30 55 1 73 74
M  V30 56 1 74 75
M  V30 57 1 76 77
M  V30 58 1 77 78
M  V30 59 1 79 80
M  V30 60 1 80 81
M  V30 61 1 82 83
M  V30 62 1 83 84
M  V30 63 1 85 86
M  V30 64 1 86 87
M  V30 65 1 88 89
M  V30 66 1 89 90
M  V30 67 1 91 92
M  V30 68 1 92 93
M  V30 69 1 94 95
M  V30 70 1 95 96
M  V30 71 1 97 98
M  V30 72 1 98 99
M  V30 73 1 2 94
M  V30 74 1 3 67
M  V30 75 1 4 76
M  V30 76 1 5 52
M  V30 77 1 7 82
M  V30 78 1 8 78
M  V30 79 1 9 69
M  V30 80 1 10 64
M  V30 81 1 12 85
M  V30 82 1 13 61
M  V30 83 1 14 46
M  V30 84 1 15 91
M  V30 85 1 17 58
M  V30 86 1 18 97
M  V30 87 1 19 73
M  V30 88 1 20 48
M  V30 89 1 22 88
M  V30 90 1 23 79
M  V30 91 1 24 93
M  V30 92 1 25 96
M  V30 93 1 27 84
M  V30 94 1 28 55
M  V30 95 1 29 66
M  V30 96 1 30 81
M  V30 97 1 32 90
M  V30 98 1 33 70
M  V30 99 1 34 87
M  V30 100 1 35 99
M  V30 101 1 37 49
M  V30 102 1 38 63
M  V30 103 1 39 54
M  V30 104 1 40 57
M  V30 105 1 42 75
M  V30 106 1 43 60
M  V30 107 1 44 72
M  V30 108 1 45 51
M  V30 END BOND
M  V30 END CTAB
M  END

$$$$
