
     RDKit          3D

  0  0  0  0  0  0  0  0  0  0999 V3000
M  V30 BEGIN CTAB
M  V30 COUNTS 99 108 0 0 0
M  V30 BEGIN ATOM
M  V30 1 Pd -1.4459 -3.6149 4.7979 0
M  V30 2 Pb -2.3723 -3.8955 4.6543 0
M  V30 3 Pb -1.7811 -2.8319 5.3807 0
M  V30 4 Pb -0.5464 -3.5180 5.1477 0
M  V30 5 Pb -1.0772 -4.1211 3.9616 0
M  V30 6 Pd 3.4377 5.5291 0.6765 0
M  V30 7 Pb 2.6968 5.8442 1.2429 0
M  V30 8 Pb 3.0055 5.8798 -0.1513 0
M  V30 9 Pb 3.8478 5.1994 1.5042 0
M  V30 10 Pb 3.9987 4.9412 0.0787 0
M  V30 11 Pd 2.4747 -0.8238 4.0572 0
M  V30 12 Pb 3.4343 -0.7497 3.7283 0
M  V30 13 Pb 1.4796 -1.0014 4.2092 0
M  V30 14 Pb 2.4262 0.1000 3.7949 0
M  V30 15 Pb 2.6539 -1.6262 4.5837 0
M  V30 16 Pd -1.8799 -2.3940 -4.8003 0
M  V30 17 Pb -2.0395 -3.3478 -5.1338 0
M  V30 18 Pb -2.5725 -2.4279 -4.0143 0
M  V30 19 Pb -0.9568 -2.2774 -5.2152 0
M  V30 20 Pb -1.9445 -1.4318 -5.0118 0
M  V30 21 Pd -2.6873 -1.9462 1.3635 0
M  V30 22 Pb -2.0761 -1.9851 2.1618 0
M  V30 23 Pb -3.4102 -2.2512 1.9550 0
M  V30 24 Pb -3.5848 -1.6256 1.1428 0
M  V30 25 Pb -3.0111 -2.1179 0.3907 0
M  V30 26 Pd -1.6965 2.8076 -3.6250 0
M  V30 27 Pb -0.9932 3.0513 -3.0368 0
M  V30 28 Pb -2.1340 3.5821 -3.1412 0
M  V30 29 Pb -1.3170 1.8992 -3.9243 0
M  V30 30 Pb -2.1827 2.9579 -4.4340 0
M  V30 31 Pd -3.7870 3.5812 3.1990 0
M  V30 32 Pb -4.6830 3.1256 3.1754 0
M  V30 33 Pb -2.9023 4.0749 3.2112 0
M  V30 34 Pb -4.0161 4.1167 2.3487 0
M  V30 35 Pb -3.5292 2.8806 3.9086 0
M  V30 36 Pd 0.6363 -2.8549 -2.7741 0
M  V30 37 Pb 0.5741 -3.5416 -1.9862 0
M  V30 38 Pb 1.4373 -3.4455 -2.6882 0
M  V30 39 Pb 0.9272 -3.3807 -3.5969 0
M  V30 40 Pb 0.2251 -2.1071 -3.3123 0
M  V30 41 Pd 5.1187 0.2936 -2.3884 0
M  V30 42 Pb 4.8550 1.2140 -2.0394 0
M  V30 43 Pb 4.3585 0.1592 -3.0870 0
M  V30 44 Pb 5.7224 0.2255 -1.5836 0
M  V30 45 Pb 5.5626 -0.5331 -2.7717 0
M  V30 46 Ag 2.1026 -3.7754 -2.8277 0
M  V30 47 Fe 4.3189 -3.0434 -3.2504 0
M  V30 48 Ag 5.7884 -1.2092 -3.0168 0
M  V30 49 Ag 4.1174 -0.6962 3.3933 0
M  V30 50 Fe 5.2560 -0.3680 1.3165 0
M  V30 51 Ag 6.0193 0.0901 -0.8997 0
M  V30 52 Ag -4.2766 -1.3599 1.2057 0
M  V30 53 Fe -5.2081 0.4920 2.3076 0
M  V30 54 Ag -5.2863 2.7063 3.0637 0
M  V30 55 Ag -2.0614 -2.1671 5.6592 0
M  V30 56 Fe -2.7276 0.0365 4.9754 0
M  V30 57 Ag -3.4031 2.2712 4.3891 0
M  V30 58 Ag -0.7762 -4.4235 3.2916 0
M  V30 59 Fe -0.0631 -4.2392 0.9946 0
M  V30 60 Ag 0.5127 -3.9904 -1.3339 0
M  V30 61 Ag 2.6431 6.0487 -0.7658 0
M  V30 62 Fe 0.7343 5.2427 -1.8274 0
M  V30 63 Ag -0.5040 3.4549 -2.7314 0
M  V30 64 Ag 4.0019 4.8954 2.1590 0
M  V30 65 Fe 3.7851 2.7366 3.0806 0
M  V30 66 Ag 2.6630 0.7662 3.6816 0
M  V30 67 Ag -2.0246 -3.9861 -5.5978 0
M  V30 68 Fe 0.1449 -4.7205 -6.0974 0
M  V30 69 Ag 1.2060 -3.8324 -4.1738 0
M  V30 70 Ag -2.5011 4.0628 -2.7147 0
M  V30 71 Fe -3.4496 4.4438 -0.5939 0
M  V30 72 Ag -4.0861 4.4785 1.6831 0
M  V30 73 Ag 2.0727 5.9540 1.6632 0
M  V30 74 Fe -0.0894 5.1201 2.3090 0
M  V30 75 Ag -2.2554 4.5030 3.1488 0
M  V30 76 Ag -0.2411 -2.0351 -5.3650 0
M  V30 77 Fe 1.7760 -1.0543 -4.4796 0
M  V30 78 Ag 3.8300 -0.1083 -3.6164 0
M  V30 79 Ag -2.0474 -0.9063 -5.4952 0
M  V30 80 Fe -2.3522 1.1905 -6.5091 0
M  V30 81 Ag -2.3703 3.0430 -5.1341 0
M  V30 82 Ba 0.7534 -1.2245 4.3145 0
M  V30 83 Ga -0.4301 -1.5560 3.4769 0
M  V30 84 Ba -1.7157 -1.9388 2.8222 0
M  V30 85 Ba -1.1099 1.1920 -4.1880 0
M  V30 86 Ga -0.5859 -0.1894 -3.8656 0
M  V30 87 Ba -0.0607 -1.5864 -3.7831 0
M  V30 88 Ba -3.0949 -4.0184 4.5679 0
M  V30 89 Ga -3.7997 -3.2914 3.5332 0
M  V30 90 Ba -3.9851 -2.4667 2.3629 0
M  V30 91 Ba -3.0411 -2.4349 -3.3566 0
M  V30 92 Ga -3.0623 -2.3603 -1.8253 0
M  V30 93 Ba -3.3043 -2.2150 -0.3349 0
M  V30 94 Ba 4.3676 4.5191 -0.4277 0
M  V30 95 Ga 4.4788 3.1409 -1.0052 0
M  V30 96 Ba 4.8869 1.9622 -1.8345 0
M  V30 97 Ba 0.1169 -3.5832 5.4255 0
M  V30 98 Ga 1.4305 -2.9682 5.2376 0
M  V30 99 Ba 2.6613 -2.2146 5.0297 0
M  V30 END ATOM
M  V30 BEGIN BOND
M  V30 1 1 1 2
M  V30 2 1 1 3
M  V30 3 1 1 4
M  V30 4 1 1 5
M  V30 5 1 6 7
M  V30 6 1 6 8
M  V30 7 1 6 9
M  V30 8 1 6 10
M  V30 9 1 11 12
M  V30 10 1 11 13
M  V30 11 1 11 14
M  V30 12 1 11 15
M  V30 13 1 16 17
M  V30 14 1 16 18
M  V30 15 1 16 19
M  V30 16 1 16 20
M  V30 17 1 21 22
M  V30 18 1 21 23
M  V30 19 1 21 24
M  V30 20 1 21 25
M  V30 21 1 26 27
M  V30 22 1 26 28
M  V30 23 1 26 29
M  V30 24 1 26 30
M  V30 25 1 31 32
M  V30 26 1 31 33
M  V30 27 1 31 34
M  V30 28 1 31 35
M  V30 29 1 36 37
M  V30 30 1 36 38
M  V30 31 1 36 39
M  V30 32 1 36 40
M  V30 33 1 41 42
M  V30 34 1 41 43
M  V30 35 1 41 44
M  V30 36 1 41 45
M  V30 37 1 46 47
M  V30 38 1 47 48
M  V30 39 1 49 50
M  V30 40 1 50 51
M  V30 41 1 52 53
M  V30 42 1 53 54
M  V30 43 1 55 56
M  V30 44 1 56 57
M  V30 45 1 58 59
M  V30 46 1 59 60
M  V30 47 1 61 62
M  V30 48 1 62 63
M  V30 49 1 64 65
M  V30 50 1 65 66
M  V30 51 1 67 68
M  V30 52 1 68 69
M  V30 53 1 70 71
M  V30 54 1 71 72
M  V30 55 1 73 74
M  V30 56 1 74 75
M  V30 57 1 76 77
M  V30 58 1 77 78
M  V30 59 1 79 80
M  V30 60 1 80 81
M  V30 61 1 82 83
M  V30 62 1 83 84
M  V30 63 1 85 86
M  V30 64 1 86 87
M  V30 65 1 88 89
M  V30 66 1 89 90
M  V30 67 1 91 92
M  V30 68 1 92 93
M  V30 69 1 94 95
M  V30 70 1 95 96
M  V30 71 1 97 98
M  V30 72 1 98 99
M  V30 73 1 2 88
M  V30 74 1 3 55
M  V30 75 1 4 97
M  V30 76 1 5 58
M  V30 77 1 7 73
M  V30 78 1 8 61
M  V30 79 1 9 64
M  V30 80 1 10 94
M  V30 81 1 12 49
M  V30 82 1 13 82
M  V30 83 1 14 66
M  V30 84 1 15 99
M  V30 85 1 17 67
M  V30 86 1 18 91
M  V30 87 1 19 76
M  V30 88 1 20 79
M  V30 89 1 22 84
M  V30 90 1 23 90
M  V30 91 1 24 52
M  V30 92 1 25 93
M  V30 93 1 27 63
M  V30 94 1 28 70
M  V30 95 1 29 85
M  V30 96 1 30 81
M  V30 97 1 32 54
M  V30 98 1 33 75
M  V30 99 1 34 72
M  V30 100 1 35 57
M  V30 101 1 37 60
M  V30 102 1 38 46
M  V30 103 1 39 69
M  V30 104 1 40 87
M  V30 105 1 42 96
M  V30 106 1 43 78
M  V30 107 1 44 51
M  V30 108 1 45 48
M  V30 END BOND
M  V30 END CTAB
M  END

$$$$
