
     RDKit          3D

  0  0  0  0  0  0  0  0  0  0999 V3000
M  V30 BEGIN CTAB
M  V30 COUNTS 99 108 0 0 0
M  V30 BEGIN ATOM
M  V30 1 Pd 2.3811 -0.7724 -3.9949 0
M  V30 2 Pb 2.1052 0.0569 -4.4784 0
M  V30 3 Pb 2.6546 -1.6032 -3.5082 0
M  V30 4 Pb 3.3208 -0.4313 -3.9067 0
M  V30 5 Pb 1.4528 -1.1185 -4.1511 0
M  V30 6 Pd -4.0807 -5.2348 4.3057 0
M  V30 7 Pb -4.2835 -4.3084 4.6287 0
M  V30 8 Pb -3.1183 -5.1875 4.5881 0
M  V30 9 Pb -4.9434 -5.2907 3.8066 0
M  V30 10 Pb -3.8852 -6.1557 3.9885 0
M  V30 11 Pd -2.0458 5.3521 0.8812 0
M  V30 12 Pb -2.0648 6.3431 0.9829 0
M  V30 13 Pb -1.9272 4.3668 0.7374 0
M  V30 14 Pb -1.6667 5.2709 1.8009 0
M  V30 15 Pb -2.3065 5.4707 -0.0906 0
M  V30 16 Pd 4.0147 2.4353 3.6349 0
M  V30 17 Pb 3.3253 3.0624 3.9918 0
M  V30 18 Pb 4.5419 3.1895 3.2467 0
M  V30 19 Pb 3.4419 1.6998 3.9908 0
M  V30 20 Pb 4.6492 1.7945 3.2007 0
M  V30 21 Pd -3.0779 0.0620 2.8892 0
M  V30 22 Pb -3.5841 -0.4406 3.5917 0
M  V30 23 Pb -2.5776 0.5594 2.1790 0
M  V30 24 Pb -2.2444 -0.0149 3.4360 0
M  V30 25 Pb -3.8675 0.0632 2.2783 0
M  V30 26 Pd 5.9063 2.7861 -1.1494 0
M  V30 27 Pb 5.9463 3.4534 -0.4061 0
M  V30 28 Pb 5.7543 3.5296 -1.8033 0
M  V30 29 Pb 5.8736 2.1120 -1.8904 0
M  V30 30 Pb 6.0468 2.0595 -0.4733 0
M  V30 31 Pd 0.4678 6.7513 -3.9319 0
M  V30 32 Pb 0.5295 5.8868 -4.4279 0
M  V30 33 Pb 1.4488 6.8574 -4.0818 0
M  V30 34 Pb -0.4779 6.5418 -3.6395 0
M  V30 35 Pb 0.4023 7.6155 -3.4399 0
M  V30 36 Pd -4.6363 -4.1551 -2.6639 0
M  V30 37 Pb -5.0562 -3.3058 -2.3484 0
M  V30 38 Pb -4.1433 -4.9913 -2.9100 0
M  V30 39 Pb -5.2154 -4.6145 -1.9878 0
M  V30 40 Pb -4.0200 -3.6571 -3.2751 0
M  V30 41 Pd 1.0117 -7.2725 0.1305 0
M  V30 42 Pb 1.1734 -6.9174 1.0564 0
M  V30 43 Pb 1.6677 -6.6400 -0.2810 0
M  V30 44 Pb 0.6483 -7.5132 -0.7676 0
M  V30 45 Pb 0.3352 -7.8759 0.5358 0
M  V30 46 Ag 1.8626 0.6660 -4.8403 0
M  V30 47 Fe 1.2360 2.9552 -4.8271 0
M  V30 48 Ag 0.6117 5.2451 -4.8045 0
M  V30 49 Ag -4.3919 0.0165 1.7465 0
M  V30 50 Fe -5.0000 -1.2455 -0.1687 0
M  V30 51 Ag -5.3363 -2.6965 -2.0159 0
M  V30 52 Ag 2.9385 1.2117 4.2518 0
M  V30 53 Fe 0.6811 0.4974 4.0802 0
M  V30 54 Ag -1.5966 -0.1108 3.8015 0
M  V30 55 Ag -3.6777 -6.8142 3.7155 0
M  V30 56 Fe -2.0266 -7.7651 2.3169 0
M  V30 57 Ag -0.2113 -8.2405 0.8801 0
M  V30 58 Ag -2.3652 -5.2201 4.6422 0
M  V30 59 Fe -0.4852 -5.8821 3.3356 0
M  V30 60 Ag 1.1336 -6.6344 1.7565 0
M  V30 61 Ag -1.9525 7.0711 0.8964 0
M  V30 62 Fe -0.8646 8.1502 -0.8949 0
M  V30 63 Ag 0.2472 8.1727 -2.9738 0
M  V30 64 Ag -1.2944 5.2265 2.4482 0
M  V30 65 Fe 0.6919 4.4064 3.4537 0
M  V30 66 Ag 2.7409 3.4771 4.2063 0
M  V30 67 Ag -5.4795 -5.3738 3.2901 0
M  V30 68 Fe -5.7273 -5.1696 0.9360 0
M  V30 69 Ag -5.6410 -4.8602 -1.4185 0
M  V30 70 Ag 0.7559 -1.3338 -4.3394 0
M  V30 71 Fe -1.3754 -2.3250 -3.9837 0
M  V30 72 Ag -3.5290 -3.2953 -3.7130 0
M  V30 73 Ag -3.6875 -5.5664 -3.0726 0
M  V30 74 Fe -1.7271 -6.7101 -2.3711 0
M  V30 75 Ag 0.2316 -7.6183 -1.3809 0
M  V30 76 Ag 2.8919 -2.2123 -3.1387 0
M  V30 77 Fe 2.5054 -4.1848 -1.8726 0
M  V30 78 Ag 2.1453 -6.1616 -0.6056 0
M  V30 79 Ag 5.6175 4.1021 -2.2711 0
M  V30 80 Fe 3.9960 5.5268 -3.2629 0
M  V30 81 Ag 2.1949 6.8143 -4.1228 0
M  V30 82 Ba -4.4574 -3.6221 4.8819 0
M  V30 83 Ga -4.1949 -2.2231 4.4877 0
M  V30 84 Ba -3.9568 -0.8102 4.1292 0
M  V30 85 Ba 4.9289 3.7386 2.9161 0
M  V30 86 Ga 5.4659 3.8705 1.5500 0
M  V30 87 Ba 5.9750 3.9342 0.1684 0
M  V30 88 Ba -2.4873 5.5817 -0.8239 0
M  V30 89 Ga -1.8034 5.9741 -2.0906 0
M  V30 90 Ba -1.1745 6.3621 -3.3868 0
M  V30 91 Ba 5.1103 1.3391 2.8212 0
M  V30 92 Ga 5.6452 1.4100 1.4457 0
M  V30 93 Ba 6.1458 1.5397 0.0615 0
M  V30 94 Ba 4.0404 -0.2088 -3.8852 0
M  V30 95 Ga 4.9183 0.7161 -3.1369 0
M  V30 96 Ba 5.8759 1.6086 -2.4493 0
M  V30 97 Ba -1.7752 3.6438 0.5923 0
M  V30 98 Ga -2.0255 2.2967 1.1449 0
M  V30 99 Ba -2.2207 0.9112 1.6197 0
M  V30 END ATOM
M  V30 BEGIN BOND
M  V30 1 1 1 2
M  V30 2 1 1 3
M  V30 3 1 1 4
M  V30 4 1 1 5
M  V30 5 1 6 7
M  V30 6 1 6 8
M  V30 7 1 6 9
M  V30 8 1 6 10
M  V30 9 1 11 12
M  V30 10 1 11 13
M  V30 11 1 11 14
M  V30 12 1 11 15
M  V30 13 1 16 17
M  V30 14 1 16 18
M  V30 15 1 16 19
M  V30 16 1 16 20
M  V30 17 1 21 22
M  V30 18 1 21 23
M  V30 19 1 21 24
M  V30 20 1 21 25
M  V30 21 1 26 27
M  V30 22 1 26 28
M  V30 23 1 26 29
M  V30 24 1 26 30
M  V30 25 1 31 32
M  V30 26 1 31 33
M  V30 27 1 31 34
M  V30 28 1 31 35
M  V30 29 1 36 37
M  V30 30 1 36 38
M  V30 31 1 36 39
M  V30 32 1 36 40
M  V30 33 1 41 42
M  V30 34 1 41 43
M  V30 35 1 41 44
M  V30 36 1 41 45
M  V30 37 1 46 47
M  V30 38 1 47 48
M  V30 39 1 49 50
M  V30 40 1 50 51
M  V30 41 1 52 53
M  V30 42 1 53 54
M  V30 43 1 55 56
M  V30 44 1 56 57
M  V30 45 1 58 59
M  V30 46 1 59 60
M  V30 47 1 61 62
M  V30 48 1 62 63
M  V30 49 1 64 65
M  V30 50 1 65 66
M  V30 51 1 67 68
M  V30 52 1 68 69
M  V30 53 1 70 71
M  V30 54 1 71 72
M  V30 55 1 73 74
M  V30 56 1 74 75
M  V30 57 1 76 77
M  V30 58 1 77 78
M  V30 59 1 79 80
M  V30 60 1 80 81
M  V30 61 1 82 83
M  V30 62 1 83 84
M  V30 63 1 85 86
M  V30 64 1 86 87
M  V30 65 1 88 89
M  V30 66 1 89 90
M  V30 67 1 91 92
M  V30 68 1 92 93
M  V30 69 1 94 95
M  V30 70 1 95 96
M  V30 71 1 97 98
M  V30 72 1 98 99
M  V30 73 1 2 46
M  V30 74 1 3 76
M  V30 75 1 4 94
M  V30 76 1 5 70
M  V30 77 1 7 82
M  V30 78 1 8 58
M  V30 79 1 9 67
M  V30 80 1 10 55
M  V30 81 1 12 61
M  V30 82 1 13 97
M  V30 83 1 14 64
M  V30 84 1 15 88
M  V30 85 1 17 66
M  V30 86 1 18 85
M  V30 87 1 19 52
M  V30 88 1 20 91
M  V30 89 1 22 84
M  V30 90 1 23 99
M  V30 91 1 24 54
M  V30 92 1 25 49
M  V30 93 1 27 87
M  V30 94 1 28 79
M  V30 95 1 29 96
M  V30 96 1 30 93
M  V30 97 1 32 48
M  V30 98 1 33 81
M  V30 99 1 34 90
M  V30 100 1 35 63
M  V30 101 1 37 51
M  V30 102 1 38 73
M  V30 103 1 39 69
M  V30 104 1 40 72
M  V30 105 1 42 60
M  V30 106 1 43 78
M  V30 107 1 44 75
M  V30 108 1 45 57
M  V30 END BOND
M  V30 END CTAB
M  END

$$$$
