
     RDKit          3D

  0  0  0  0  0  0  0  0  0  0999 V3000
M  V30 BEGIN CTAB
M  V30 COUNTS 99 108 0 0 0
M  V30 BEGIN ATOM
M  V30 1 Pd 4.9969 -1.6847 2.6732 0
M  V30 2 Pb 5.0881 -2.2436 3.4966 0
M  V30 3 Pb 4.9489 -1.2311 1.7830 0
M  V30 4 Pb 3.9976 -1.6660 2.7490 0
M  V30 5 Pb 5.9915 -1.5837 2.7148 0
M  V30 6 Pd 8.8989 -1.4979 8.5481 0
M  V30 7 Pb 8.4996 -2.3434 8.2071 0
M  V30 8 Pb 9.0592 -0.5398 8.8340 0
M  V30 9 Pb 9.1709 -1.3074 7.6030 0
M  V30 10 Pb 8.5304 -1.6993 9.4510 0
M  V30 11 Pd -8.4414 1.0912 -9.3373 0
M  V30 12 Pb -7.5622 1.5175 -9.1331 0
M  V30 13 Pb -7.9781 0.3125 -9.7668 0
M  V30 14 Pb -9.3035 0.6179 -9.4801 0
M  V30 15 Pb -8.8638 1.5609 -8.5585 0
M  V30 16 Pd -8.4918 -3.1242 -5.0188 0
M  V30 17 Pb -8.8940 -2.3323 -4.5546 0
M  V30 18 Pb -8.0062 -3.5836 -5.7656 0
M  V30 19 Pb -7.7062 -3.1706 -4.3950 0
M  V30 20 Pb -9.2914 -3.1195 -5.6100 0
M  V30 21 Pd 2.2956 2.5001 3.6742 0
M  V30 22 Pb 1.9368 1.5641 3.6237 0
M  V30 23 Pb 2.2250 2.5833 2.6811 0
M  V30 24 Pb 2.7435 3.3861 3.6842 0
M  V30 25 Pb 2.3545 2.4809 4.6926 0
M  V30 26 Pd 5.5404 2.8473 8.6915 0
M  V30 27 Pb 5.2422 2.2382 9.4202 0
M  V30 28 Pb 6.5028 2.6833 8.9709 0
M  V30 29 Pb 4.6046 2.8607 8.2931 0
M  V30 30 Pb 5.8201 3.5394 8.0370 0
M  V30 31 Pd -3.9472 -0.5423 -4.3528 0
M  V30 32 Pb -3.4447 -1.1721 -4.9411 0
M  V30 33 Pb -3.7786 0.1997 -4.9962 0
M  V30 34 Pb -4.2535 -1.3056 -3.7891 0
M  V30 35 Pb -4.3590 0.1020 -3.7120 0
M  V30 36 Pd 0.9256 -1.5484 -3.6371 0
M  V30 37 Pb 0.3198 -1.9124 -4.3463 0
M  V30 38 Pb 1.8185 -1.2523 -3.2986 0
M  V30 39 Pb -0.0461 -1.6355 -3.4101 0
M  V30 40 Pb 0.7261 -0.6129 -3.9225 0
M  V30 41 Pd -1.2869 1.7396 -0.7200 0
M  V30 42 Pb -1.7675 0.9367 -1.0801 0
M  V30 43 Pb -1.0302 1.9438 -1.6625 0
M  V30 44 Pb -2.2624 1.8287 -0.9279 0
M  V30 45 Pb -0.4115 2.1267 -0.4297 0
M  V30 46 Ag -6.8965 1.7783 -8.9146 0
M  V30 47 Fe -5.2029 1.4143 -7.2964 0
M  V30 48 Ag -3.7804 0.7176 -5.5330 0
M  V30 49 Ag 5.2642 -2.6911 4.0718 0
M  V30 50 Fe 6.6137 -2.9494 6.0060 0
M  V30 51 Ag 8.0661 -2.8536 7.8789 0
M  V30 52 Ag 8.1010 -1.7156 10.0533 0
M  V30 53 Fe 6.3777 -0.1860 10.5250 0
M  V30 54 Ag 5.1541 1.7454 9.9676 0
M  V30 55 Ag -7.6802 -0.3792 -9.8368 0
M  V30 56 Fe -7.5319 -2.2318 -8.3407 0
M  V30 57 Ag -7.6987 -3.6773 -6.4500 0
M  V30 58 Ag -9.1305 1.6649 -7.8584 0
M  V30 59 Fe -9.2786 0.2301 -5.9579 0
M  V30 60 Ag -9.1531 -1.6275 -4.4661 0
M  V30 61 Ag -9.8847 0.1625 -9.4358 0
M  V30 62 Fe -10.2763 -1.5915 -7.9107 0
M  V30 63 Ag -9.8435 -3.0377 -6.0992 0
M  V30 64 Ag 6.7148 -1.4745 2.8849 0
M  V30 65 Fe 8.1441 -1.3184 4.7776 0
M  V30 66 Ag 9.2808 -1.2274 6.8634 0
M  V30 67 Ag 4.9147 -0.9645 1.0824 0
M  V30 68 Fe 3.7326 -0.9364 -0.9778 0
M  V30 69 Ag 2.4449 -0.9994 -2.9728 0
M  V30 70 Ag 3.1897 3.9669 3.7838 0
M  V30 71 Fe 4.7439 4.4338 5.4893 0
M  V30 72 Ag 5.8909 4.0538 7.5101 0
M  V30 73 Ba -7.1352 -3.2380 -3.9068 0
M  V30 74 Ga -5.8434 -2.5707 -3.6486 0
M  V30 75 Ba -4.5587 -1.8796 -3.4201 0
M  V30 76 Ba 9.0998 0.1926 9.0485 0
M  V30 77 Ga 8.1517 1.3486 9.0929 0
M  V30 78 Ba 7.2304 2.5253 9.1515 0
M  V30 79 Ba 0.5457 0.0922 -4.0950 0
M  V30 80 Ga -0.1280 1.1180 -3.2835 0
M  V30 81 Ba -0.8070 2.0487 -2.3683 0
M  V30 82 Ba 2.1852 2.7029 1.9426 0
M  V30 83 Ga 1.1996 2.5275 0.8596 0
M  V30 84 Ba 0.2755 2.3896 -0.2814 0
M  V30 85 Ba -0.7621 -1.6356 -3.1804 0
M  V30 86 Ga -1.4684 -0.6880 -2.2921 0
M  V30 87 Ba -2.0685 0.3229 -1.3953 0
M  V30 88 Ba -3.0043 -1.6279 -5.3376 0
M  V30 89 Ga -1.5758 -1.9360 -5.1470 0
M  V30 90 Ba -0.1480 -2.1766 -4.8713 0
M  V30 91 Ba 3.2569 -1.5830 2.8559 0
M  V30 92 Ga 2.4507 -0.3893 3.1975 0
M  V30 93 Ba 1.7139 0.8489 3.5378 0
M  V30 94 Ba -4.5969 0.5909 -3.1988 0
M  V30 95 Ga -3.8365 1.2645 -2.1310 0
M  V30 96 Ba -2.9922 1.8880 -1.0960 0
M  V30 97 Ba 2.3384 2.5254 5.4610 0
M  V30 98 Ga 3.1909 2.6695 6.6837 0
M  V30 99 Ba 3.8987 2.8111 7.9959 0
M  V30 END ATOM
M  V30 BEGIN BOND
M  V30 1 1 1 2
M  V30 2 1 1 3
M  V30 3 1 1 4
M  V30 4 1 1 5
M  V30 5 1 6 7
M  V30 6 1 6 8
M  V30 7 1 6 9
M  V30 8 1 6 10
M  V30 9 1 11 12
M  V30 10 1 11 13
M  V30 11 1 11 14
M  V30 12 1 11 15
M  V30 13 1 16 17
M  V30 14 1 16 18
M  V30 15 1 16 19
M  V30 16 1 16 20
M  V30 17 1 21 22
M  V30 18 1 21 23
M  V30 19 1 21 24
M  V30 20 1 21 25
M  V30 21 1 26 27
M  V30 22 1 26 28
M  V30 23 1 26 29
M  V30 24 1 26 30
M  V30 25 1 31 32
M  V30 26 1 31 33
M  V30 27 1 31 34
M  V30 28 1 31 35
M  V30 29 1 36 37
M  V30 30 1 36 38
M  V30 31 1 36 39
M  V30 32 1 36 40
M  V30 33 1 41 42
M  V30 34 1 41 43
M  V30 35 1 41 44
M  V30 36 1 41 45
M  V30 37 1 46 47
M  V30 38 1 47 48
M  V30 39 1 49 50
M  V30 40 1 50 51
M  V30 41 1 52 53
M  V30 42 1 53 54
M  V30 43 1 55 56
M  V30 44 1 56 57
M  V30 45 1 58 59
M  V30 46 1 59 60
M  V30 47 1 61 62
M  V30 48 1 62 63
M  V30 49 1 64 65
M  V30 50 1 65 66
M  V30 51 1 67 68
M  V30 52 1 68 69
M  V30 53 1 70 71
M  V30 54 1 71 72
M  V30 55 1 73 74
M  V30 56 1 74 75
M  V30 57 1 76 77
M  V30 58 1 77 78
M  V30 59 1 79 80
M  V30 60 1 80 81
M  V30 61 1 82 83
M  V30 62 1 83 84
M  V30 63 1 85 86
M  V30 64 1 86 87
M  V30 65 1 88 89
M  V30 66 1 89 90
M  V30 67 1 91 92
M  V30 68 1 92 93
M  V30 69 1 94 95
M  V30 70 1 95 96
M  V30 71 1 97 98
M  V30 72 1 98 99
M  V30 73 1 2 49
M  V30 74 1 3 67
M  V30 75 1 4 91
M  V30 76 1 5 64
M  V30 77 1 7 51
M  V30 78 1 8 76
M  V30 79 1 9 66
M  V30 80 1 10 52
M  V30 81 1 12 46
M  V30 82 1 13 55
M  V30 83 1 14 61
M  V30 84 1 15 58
M  V30 85 1 17 60
M  V30 86 1 18 57
M  V30 87 1 19 73
M  V30 88 1 20 63
M  V30 89 1 22 93
M  V30 90 1 23 82
M  V30 91 1 24 70
M  V30 92 1 25 97
M  V30 93 1 27 54
M  V30 94 1 28 78
M  V30 95 1 29 99
M  V30 96 1 30 72
M  V30 97 1 32 88
M  V30 98 1 33 48
M  V30 99 1 34 75
M  V30 100 1 35 94
M  V30 101 1 37 90
M  V30 102 1 38 69
M  V30 103 1 39 85
M  V30 104 1 40 79
M  V30 105 1 42 87
M  V30 106 1 43 81
M  V30 107 1 44 96
M  V30 108 1 45 84
M  V30 END BOND
M  V30 END CTAB
M  END

$$$$
