
     RDKit          3D

  0  0  0  0  0  0  0  0  0  0999 V3000
M  V30 BEGIN CTAB
M  V30 COUNTS 99 108 0 0 0
M  V30 BEGIN ATOM
M  V30 1 Pd 3.4018 0.5534 4.6208 0
M  V30 2 Pb 3.0913 -0.3777 4.4648 0
M  V30 3 Pb 3.3668 0.4198 5.6030 0
M  V30 4 Pb 3.7564 0.6098 3.6961 0
M  V30 5 Pb 3.5052 1.5353 4.7400 0
M  V30 6 Pd -3.4542 -0.7672 3.4426 0
M  V30 7 Pb -2.5773 -1.2421 3.4967 0
M  V30 8 Pb -3.7488 -1.4324 2.7316 0
M  V30 9 Pb -3.1432 -0.0841 4.1119 0
M  V30 10 Pb -4.3495 -0.3384 3.4133 0
M  V30 11 Pd -0.4042 3.5683 3.0735 0
M  V30 12 Pb -0.8686 3.2018 3.8825 0
M  V30 13 Pb 0.4585 3.6984 3.5719 0
M  V30 14 Pb -1.2623 3.5439 2.5581 0
M  V30 15 Pb 0.0417 3.8189 2.2159 0
M  V30 16 Pd 10.4209 -0.8233 3.6899 0
M  V30 17 Pb 10.1594 -1.7874 3.8119 0
M  V30 18 Pb 11.3889 -1.0495 3.8158 0
M  V30 19 Pb 10.5637 0.0926 4.0817 0
M  V30 20 Pb 9.5053 -0.5799 3.3659 0
M  V30 21 Pd 9.5550 -1.2453 7.9277 0
M  V30 22 Pb 9.8031 -0.2780 7.8034 0
M  V30 23 Pb 10.5037 -1.4808 8.1476 0
M  V30 24 Pb 8.5767 -1.0324 7.9101 0
M  V30 25 Pb 9.3989 -2.1580 7.5336 0
M  V30 26 Pd -7.7100 0.0468 -8.7246 0
M  V30 27 Pb -7.3605 0.8760 -8.2860 0
M  V30 28 Pb -8.0373 -0.8112 -9.1138 0
M  V30 29 Pb -8.3158 -0.0804 -7.9445 0
M  V30 30 Pb -6.9546 0.0449 -9.3964 0
M  V30 31 Pd -6.3194 -2.2132 -1.7152 0
M  V30 32 Pb -6.9297 -1.7304 -1.0981 0
M  V30 33 Pb -6.9479 -1.9755 -2.4575 0
M  V30 34 Pb -5.6661 -2.6581 -2.3373 0
M  V30 35 Pb -5.7208 -2.4466 -0.9268 0
M  V30 36 Pd -2.5452 3.4688 -3.9457 0
M  V30 37 Pb -3.3939 3.4451 -4.4778 0
M  V30 38 Pb -1.6952 3.5673 -3.4285 0
M  V30 39 Pb -3.0256 3.6655 -3.0914 0
M  V30 40 Pb -2.0541 3.1361 -4.7473 0
M  V30 41 Pd -3.0345 -2.4689 -8.4940 0
M  V30 42 Pb -2.8566 -2.9345 -7.6264 0
M  V30 43 Pb -3.5932 -3.2389 -8.7936 0
M  V30 44 Pb -2.4807 -1.6819 -8.2235 0
M  V30 45 Pb -3.4130 -1.9155 -9.2499 0
M  V30 46 Ag 12.0755 -1.2295 4.0409 0
M  V30 47 Fe 12.5968 -1.6628 6.2794 0
M  V30 48 Ag 11.2302 -1.6414 8.1774 0
M  V30 49 Ag -1.7204 2.7949 -5.3224 0
M  V30 50 Fe -1.8382 0.8878 -6.7299 0
M  V30 51 Ag -2.0888 -1.0654 -8.0547 0
M  V30 52 Ag -5.0422 -0.1112 3.2863 0
M  V30 53 Fe -6.5338 -0.4945 1.5035 0
M  V30 54 Ag -7.2674 -1.3351 -0.5715 0
M  V30 55 Ag -7.1150 1.4783 -7.9103 0
M  V30 56 Fe -5.5528 2.4601 -6.4118 0
M  V30 57 Ag -4.0060 3.4672 -4.9143 0
M  V30 58 Ag -1.8735 3.5963 2.1239 0
M  V30 59 Fe -2.7011 3.6798 -0.1019 0
M  V30 60 Ag -3.3062 3.7313 -2.3990 0
M  V30 61 Ag 4.2258 0.5913 3.1207 0
M  V30 62 Fe 6.5443 0.1178 2.9435 0
M  V30 63 Ag 8.8612 -0.3925 3.0250 0
M  V30 64 Ag -8.6524 -0.2427 -7.2983 0
M  V30 65 Fe -8.1282 -1.0009 -5.1102 0
M  V30 66 Ag -7.4636 -1.7667 -2.9630 0
M  V30 67 Ag 3.5760 0.2746 6.3008 0
M  V30 68 Fe 5.6598 -0.3133 7.2721 0
M  V30 69 Ag 7.8440 -0.8881 8.0026 0
M  V30 70 Ag 2.6965 -0.9922 4.3266 0
M  V30 71 Fe 0.4139 -1.4796 3.9166 0
M  V30 72 Ag -1.9239 -1.6048 3.5449 0
M  V30 73 Ag 0.3110 3.9294 1.5262 0
M  V30 74 Fe -0.2810 3.8432 -0.7713 0
M  V30 75 Ag -1.0957 3.6939 -2.9963 0
M  V30 76 Ag -8.1022 -1.5109 -9.3512 0
M  V30 77 Fe -6.3894 -3.1240 -9.4135 0
M  V30 78 Ag -4.1344 -3.6846 -9.0371 0
M  V30 79 Ag -5.1367 -2.9748 -2.7743 0
M  V30 80 Fe -3.9557 -3.1500 -4.8332 0
M  V30 81 Ag -2.8503 -3.2385 -6.9390 0
M  V30 82 Ba 9.9392 -2.4479 4.1240 0
M  V30 83 Ga 9.6205 -2.6855 5.5693 0
M  V30 84 Ba 9.3430 -2.7384 7.0415 0
M  V30 85 Ba 3.4458 2.2757 4.8000 0
M  V30 86 Ga 2.2982 3.0984 4.3710 0
M  V30 87 Ba 1.1121 3.8510 3.9178 0
M  V30 88 Ba -2.9109 0.4381 4.6062 0
M  V30 89 Ga -2.0740 1.6584 4.5413 0
M  V30 90 Ba -1.2338 2.8750 4.4540 0
M  V30 91 Ba -3.9193 -1.9714 2.2139 0
M  V30 92 Ga -4.6358 -2.2301 0.9283 0
M  V30 93 Ba -5.2871 -2.6791 -0.3395 0
M  V30 94 Ba 10.6107 0.6751 4.5722 0
M  V30 95 Ga 10.3319 0.6226 6.0441 0
M  V30 96 Ba 10.0145 0.3846 7.4897 0
M  V30 97 Ba -6.3581 -0.0174 -9.8667 0
M  V30 98 Ga -5.0547 -0.7422 -9.8205 0
M  V30 99 Ba -3.7535 -1.4702 -9.7657 0
M  V30 END ATOM
M  V30 BEGIN BOND
M  V30 1 1 1 2
M  V30 2 1 1 3
M  V30 3 1 1 4
M  V30 4 1 1 5
M  V30 5 1 6 7
M  V30 6 1 6 8
M  V30 7 1 6 9
M  V30 8 1 6 10
M  V30 9 1 11 12
M  V30 10 1 11 13
M  V30 11 1 11 14
M  V30 12 1 11 15
M  V30 13 1 16 17
M  V30 14 1 16 18
M  V30 15 1 16 19
M  V30 16 1 16 20
M  V30 17 1 21 22
M  V30 18 1 21 23
M  V30 19 1 21 24
M  V30 20 1 21 25
M  V30 21 1 26 27
M  V30 22 1 26 28
M  V30 23 1 26 29
M  V30 24 1 26 30
M  V30 25 1 31 32
M  V30 26 1 31 33
M  V30 27 1 31 34
M  V30 28 1 31 35
M  V30 29 1 36 37
M  V30 30 1 36 38
M  V30 31 1 36 39
M  V30 32 1 36 40
M  V30 33 1 41 42
M  V30 34 1 41 43
M  V30 35 1 41 44
M  V30 36 1 41 45
M  V30 37 1 46 47
M  V30 38 1 47 48
M  V30 39 1 49 50
M  V30 40 1 50 51
M  V30 41 1 52 53
M  V30 42 1 53 54
M  V30 43 1 55 56
M  V30 44 1 56 57
M  V30 45 1 58 59
M  V30 46 1 59 60
M  V30 47 1 61 62
M  V30 48 1 62 63
M  V30 49 1 64 65
M  V30 50 1 65 66
M  V30 51 1 67 68
M  V30 52 1 68 69
M  V30 53 1 70 71
M  V30 54 1 71 72
M  V30 55 1 73 74
M  V30 56 1 74 75
M  V30 57 1 76 77
M  V30 58 1 77 78
M  V30 59 1 79 80
M  V30 60 1 80 81
M  V30 61 1 82 83
M  V30 62 1 83 84
M  V30 63 1 85 86
M  V30 64 1 86 87
M  V30 65 1 88 89
M  V30 66 1 89 90
M  V30 67 1 91 92
M  V30 68 1 92 93
M  V30 69 1 94 95
M  V30 70 1 95 96
M  V30 71 1 97 98
M  V30 72 1 98 99
M  V30 73 1 2 70
M  V30 74 1 3 67
M  V30 75 1 4 61
M  V30 76 1 5 85
M  V30 77 1 7 72
M  V30 78 1 8 91
M  V30 79 1 9 88
M  V30 80 1 10 52
M  V30 81 1 12 90
M  V30 82 1 13 87
M  V30 83 1 14 58
M  V30 84 1 15 73
M  V30 85 1 17 82
M  V30 86 1 18 46
M  V30 87 1 19 94
M  V30 88 1 20 63
M  V30 89 1 22 96
M  V30 90 1 23 48
M  V30 91 1 24 69
M  V30 92 1 25 84
M  V30 93 1 27 55
M  V30 94 1 28 76
M  V30 95 1 29 64
M  V30 96 1 30 97
M  V30 97 1 32 54
M  V30 98 1 33 66
M  V30 99 1 34 79
M  V30 100 1 35 93
M  V30 101 1 37 57
M  V30 102 1 38 75
M  V30 103 1 39 60
M  V30 104 1 40 49
M  V30 105 1 42 81
M  V30 106 1 43 78
M  V30 107 1 44 51
M  V30 108 1 45 99
M  V30 END BOND
M  V30 END CTAB
M  END

$$$$
