
     RDKit          3D

  0  0  0  0  0  0  0  0  0  0999 V3000
M  V30 BEGIN CTAB
M  V30 COUNTS 99 108 0 0 0
M  V30 BEGIN ATOM
M  V30 1 Pd -0.1722 3.8278 -2.6234 0
M  V30 2 Pb -0.5252 4.6861 -2.2428 0
M  V30 3 Pb 0.5913 3.8838 -1.9766 0
M  V30 4 Pb -0.9542 3.7380 -3.2398 0
M  V30 5 Pb 0.1732 2.9827 -3.0267 0
M  V30 6 Pd 7.1094 -1.7857 2.0664 0
M  V30 7 Pb 6.6082 -2.5146 2.5359 0
M  V30 8 Pb 6.5557 -1.0612 2.4836 0
M  V30 9 Pb 7.6073 -2.4320 1.4966 0
M  V30 10 Pb 7.6103 -1.0896 1.5637 0
M  V30 11 Pd -3.4858 -0.6885 4.7843 0
M  V30 12 Pb -4.2457 -0.0752 4.5910 0
M  V30 13 Pb -2.7141 -1.2895 4.9854 0
M  V30 14 Pb -4.0859 -1.4838 4.6973 0
M  V30 15 Pb -2.8953 0.1230 4.7737 0
M  V30 16 Pd -5.4242 -3.2251 0.4151 0
M  V30 17 Pb -5.4962 -3.3173 1.4118 0
M  V30 18 Pb -6.2637 -2.6770 0.3852 0
M  V30 19 Pb -4.5866 -3.7749 0.4109 0
M  V30 20 Pb -5.3711 -3.1562 -0.5813 0
M  V30 21 Pd 2.2077 -4.7995 1.8788 0
M  V30 22 Pb 3.1035 -4.6833 2.3160 0
M  V30 23 Pb 1.7705 -4.5575 2.7424 0
M  V30 24 Pb 1.3029 -4.9603 1.4795 0
M  V30 25 Pb 2.6168 -5.0017 0.9884 0
M  V30 26 Pd -6.8374 0.5910 -2.8665 0
M  V30 27 Pb -7.3801 0.1751 -2.1347 0
M  V30 28 Pb -7.1403 1.5121 -2.6286 0
M  V30 29 Pb -6.2263 1.0280 -3.5248 0
M  V30 30 Pb -6.4732 -0.3127 -3.0851 0
M  V30 31 Pd -3.8288 5.4983 1.1521 0
M  V30 32 Pb -3.1644 5.9521 0.5565 0
M  V30 33 Pb -4.5688 5.6619 0.5046 0
M  V30 34 Pb -3.1233 5.1958 1.7961 0
M  V30 35 Pb -4.4837 4.9959 1.7093 0
M  V30 36 Pd 5.1875 -1.5570 -4.1697 0
M  V30 37 Pb 4.8514 -2.4631 -3.9169 0
M  V30 38 Pb 5.4932 -0.6112 -4.3035 0
M  V30 39 Pb 6.0870 -1.8921 -3.8975 0
M  V30 40 Pb 4.2615 -1.2463 -4.3657 0
M  V30 41 Pd 5.2584 2.1795 -0.6238 0
M  V30 42 Pb 5.1719 1.9861 0.3612 0
M  V30 43 Pb 4.3827 2.6692 -0.6023 0
M  V30 44 Pb 5.3680 2.2839 -1.6156 0
M  V30 45 Pb 6.1780 1.8017 -0.5953 0
M  V30 46 Ag 2.8730 -5.1226 0.2933 0
M  V30 47 Fe 3.7533 -4.1976 -1.7093 0
M  V30 48 Ag 4.6308 -3.1217 -3.6361 0
M  V30 49 Ag -3.9644 -4.1952 0.3683 0
M  V30 50 Fe -1.6654 -4.6122 0.8061 0
M  V30 51 Ag 0.6250 -5.1167 1.1940 0
M  V30 52 Ag -2.5068 0.7645 4.6953 0
M  V30 53 Fe -2.4644 2.8556 3.5606 0
M  V30 54 Ag -2.6722 4.8610 2.2971 0
M  V30 55 Ag -4.7534 0.4459 4.4305 0
M  V30 56 Fe -5.0081 2.5177 3.3111 0
M  V30 57 Ag -4.9343 4.5584 2.1109 0
M  V30 58 Ag 7.9314 -2.7620 0.9132 0
M  V30 59 Fe 7.5420 -2.6677 -1.4215 0
M  V30 60 Ag 6.6801 -2.2208 -3.5829 0
M  V30 61 Ag -1.5365 3.5979 -3.6912 0
M  V30 62 Fe -3.6473 2.5341 -3.9163 0
M  V30 63 Ag -5.7406 1.4141 -3.9442 0
M  V30 64 Ag 0.3878 2.3562 -3.3752 0
M  V30 65 Fe 1.9751 0.6812 -3.9242 0
M  V30 66 Ag 3.5678 -0.9906 -4.4666 0
M  V30 67 Ag -7.2612 2.2319 -2.4642 0
M  V30 68 Fe -6.3471 4.0658 -1.2699 0
M  V30 69 Ag -5.1576 5.6399 0.0459 0
M  V30 70 Ag -2.1389 -1.7470 5.1275 0
M  V30 71 Fe -0.3463 -3.0617 4.2983 0
M  V30 72 Ag 1.4186 -4.3451 3.3669 0
M  V30 73 Ba 6.2572 -3.0812 2.8831 0
M  V30 74 Ga 4.9871 -3.8265 2.7528 0
M  V30 75 Ba 3.7477 -4.6305 2.7036 0
M  V30 76 Ba -0.7605 5.3421 -1.9574 0
M  V30 77 Ga -1.7215 5.7970 -0.9310 0
M  V30 78 Ba -2.6754 6.2793 0.0896 0
M  V30 79 Ba -6.8931 -2.2681 0.3244 0
M  V30 80 Ga -7.3370 -1.2082 -0.6062 0
M  V30 81 Ba -7.7379 -0.1514 -1.5596 0
M  V30 82 Ba 7.9686 -0.5989 1.1341 0
M  V30 83 Ga 7.4670 0.4897 0.2891 0
M  V30 84 Ba 6.8780 1.5570 -0.5260 0
M  V30 85 Ba 6.1421 -0.4698 2.7019 0
M  V30 86 Ga 5.6177 0.6799 1.9241 0
M  V30 87 Ba 5.1198 1.8055 1.0952 0
M  V30 88 Ba -5.3515 -3.1045 -1.3294 0
M  V30 89 Ga -5.7589 -2.0638 -2.2907 0
M  V30 90 Ba -6.1818 -0.9911 -3.2089 0
M  V30 91 Ba -4.5352 -2.0746 4.5876 0
M  V30 92 Ga -5.0486 -2.7407 3.3725 0
M  V30 93 Ba -5.5619 -3.4066 2.1572 0
M  V30 94 Ba 5.6459 0.1245 -4.3613 0
M  V30 95 Ga 5.5869 1.2330 -3.3813 0
M  V30 96 Ba 5.5108 2.2983 -2.3556 0
M  V30 97 Ba 1.1180 3.9633 -1.4459 0
M  V30 98 Ga 2.4537 3.4686 -1.0499 0
M  V30 99 Ba 3.7725 3.0980 -0.4946 0
M  V30 END ATOM
M  V30 BEGIN BOND
M  V30 1 1 1 2
M  V30 2 1 1 3
M  V30 3 1 1 4
M  V30 4 1 1 5
M  V30 5 1 6 7
M  V30 6 1 6 8
M  V30 7 1 6 9
M  V30 8 1 6 10
M  V30 9 1 11 12
M  V30 10 1 11 13
M  V30 11 1 11 14
M  V30 12 1 11 15
M  V30 13 1 16 17
M  V30 14 1 16 18
M  V30 15 1 16 19
M  V30 16 1 16 20
M  V30 17 1 21 22
M  V30 18 1 21 23
M  V30 19 1 21 24
M  V30 20 1 21 25
M  V30 21 1 26 27
M  V30 22 1 26 28
M  V30 23 1 26 29
M  V30 24 1 26 30
M  V30 25 1 31 32
M  V30 26 1 31 33
M  V30 27 1 31 34
M  V30 28 1 31 35
M  V30 29 1 36 37
M  V30 30 1 36 38
M  V30 31 1 36 39
M  V30 32 1 36 40
M  V30 33 1 41 42
M  V30 34 1 41 43
M  V30 35 1 41 44
M  V30 36 1 41 45
M  V30 37 1 46 47
M  V30 38 1 47 48
M  V30 39 1 49 50
M  V30 40 1 50 51
M  V30 41 1 52 53
M  V30 42 1 53 54
M  V30 43 1 55 56
M  V30 44 1 56 57
M  V30 45 1 58 59
M  V30 46 1 59 60
M  V30 47 1 61 62
M  V30 48 1 62 63
M  V30 49 1 64 65
M  V30 50 1 65 66
M  V30 51 1 67 68
M  V30 52 1 68 69
M  V30 53 1 70 71
M  V30 54 1 71 72
M  V30 55 1 73 74
M  V30 56 1 74 75
M  V30 57 1 76 77
M  V30 58 1 77 78
M  V30 59 1 79 80
M  V30 60 1 80 81
M  V30 61 1 82 83
M  V30 62 1 83 84
M  V30 63 1 85 86
M  V30 64 1 86 87
M  V30 65 1 88 89
M  V30 66 1 89 90
M  V30 67 1 91 92
M  V30 68 1 92 93
M  V30 69 1 94 95
M  V30 70 1 95 96
M  V30 71 1 97 98
M  V30 72 1 98 99
M  V30 73 1 2 76
M  V30 74 1 3 97
M  V30 75 1 4 61
M  V30 76 1 5 64
M  V30 77 1 7 73
M  V30 78 1 8 85
M  V30 79 1 9 58
M  V30 80 1 10 82
M  V30 81 1 12 55
M  V30 82 1 13 70
M  V30 83 1 14 91
M  V30 84 1 15 52
M  V30 85 1 17 93
M  V30 86 1 18 79
M  V30 87 1 19 49
M  V30 88 1 20 88
M  V30 89 1 22 75
M  V30 90 1 23 72
M  V30 91 1 24 51
M  V30 92 1 25 46
M  V30 93 1 27 81
M  V30 94 1 28 67
M  V30 95 1 29 63
M  V30 96 1 30 90
M  V30 97 1 32 78
M  V30 98 1 33 69
M  V30 99 1 34 54
M  V30 100 1 35 57
M  V30 101 1 37 48
M  V30 102 1 38 94
M  V30 103 1 39 60
M  V30 104 1 40 66
M  V30 105 1 42 87
M  V30 106 1 43 99
M  V30 107 1 44 96
M  V30 108 1 45 84
M  V30 END BOND
M  V30 END CTAB
M  END

$$$$
