
     RDKit          3D

  0  0  0  0  0  0  0  0  0  0999 V3000
M  V30 BEGIN CTAB
M  V30 COUNTS 99 108 0 0 0
M  V30 BEGIN ATOM
M  V30 1 Pd -3.9236 -0.3729 1.1013 0
M  V30 2 Pb -3.9939 -1.0914 1.7957 0
M  V30 3 Pb -3.4432 -0.9919 0.4760 0
M  V30 4 Pb -4.3156 0.2708 1.7519 0
M  V30 5 Pb -3.8459 0.3875 0.4568 0
M  V30 6 Pd -0.3835 -3.4985 -7.6420 0
M  V30 7 Pb 0.4331 -3.1011 -7.2165 0
M  V30 8 Pb -1.1685 -3.9056 -8.0992 0
M  V30 9 Pb -0.4366 -2.7264 -8.2721 0
M  V30 10 Pb -0.5026 -4.1624 -6.8829 0
M  V30 11 Pd 5.7087 -2.3185 3.1315 0
M  V30 12 Pb 4.9601 -2.9485 2.9217 0
M  V30 13 Pb 5.9758 -2.2539 2.1724 0
M  V30 14 Pb 6.3282 -1.5698 3.3495 0
M  V30 15 Pb 5.3680 -2.2930 4.0674 0
M  V30 16 Pd 3.6854 4.4264 4.0524 0
M  V30 17 Pb 4.5477 3.9247 4.1032 0
M  V30 18 Pb 2.8158 4.9181 4.0115 0
M  V30 19 Pb 3.8570 4.5876 3.0774 0
M  V30 20 Pb 3.4939 4.2127 5.0127 0
M  V30 21 Pd 3.8988 1.5424 -3.2044 0
M  V30 22 Pb 3.7348 0.8071 -3.8662 0
M  V30 23 Pb 4.4973 0.9125 -2.7090 0
M  V30 24 Pb 4.0544 2.2721 -2.5323 0
M  V30 25 Pb 3.3123 2.1636 -3.7241 0
M  V30 26 Pd -0.8453 3.3255 6.4392 0
M  V30 27 Pb -0.5841 4.0975 5.8584 0
M  V30 28 Pb -1.1246 2.5266 6.9778 0
M  V30 29 Pb -1.7550 3.3118 6.0325 0
M  V30 30 Pb 0.0790 3.3312 6.8241 0
M  V30 31 Pd -1.0205 -2.0499 5.5566 0
M  V30 32 Pb -1.9043 -2.2061 5.1081 0
M  V30 33 Pb -1.4124 -1.4346 6.2450 0
M  V30 34 Pb -0.1309 -1.9512 5.9962 0
M  V30 35 Pb -0.5639 -2.6400 4.8870 0
M  V30 36 Pd -3.0335 2.7350 -5.8307 0
M  V30 37 Pb -2.1553 3.2079 -5.8581 0
M  V30 38 Pb -3.8624 2.1884 -5.7091 0
M  V30 39 Pb -2.8251 2.3433 -6.7277 0
M  V30 40 Pb -3.1753 3.0354 -4.8915 0
M  V30 41 Pd -4.0673 -3.8734 -3.5949 0
M  V30 42 Pb -4.6048 -4.2865 -4.3242 0
M  V30 43 Pb -3.5169 -3.4642 -2.8647 0
M  V30 44 Pb -4.7497 -3.1476 -3.5405 0
M  V30 45 Pb -3.2802 -4.4604 -3.8521 0
M  V30 46 Ag 1.0695 -2.8091 -6.9399 0
M  V30 47 Fe 2.3015 -1.2606 -5.6211 0
M  V30 48 Ag 3.6403 0.2315 -4.3419 0
M  V30 49 Ag 2.8716 2.6283 -4.1146 0
M  V30 50 Fe 0.7286 3.1295 -5.0042 0
M  V30 51 Ag -1.4659 3.4965 -5.8309 0
M  V30 52 Ag 4.0002 4.6750 2.3432 0
M  V30 53 Fe 4.0738 3.7489 0.1528 0
M  V30 54 Ag 4.1537 2.8378 -2.0436 0
M  V30 55 Ag 5.0221 -2.2303 4.7254 0
M  V30 56 Fe 2.8498 -2.0661 5.6592 0
M  V30 57 Ag 0.5636 -1.9300 6.2702 0
M  V30 58 Ag -1.8128 -4.2067 -8.3072 0
M  V30 59 Fe -3.7378 -4.6372 -7.0263 0
M  V30 60 Ag -4.8637 -4.5552 -4.9635 0
M  V30 61 Ag 4.3190 -3.3288 2.8285 0
M  V30 62 Fe 2.0497 -3.3149 3.5378 0
M  V30 63 Ag -0.1431 -3.0530 4.4190 0
M  V30 64 Ag 6.6691 -0.9284 3.5174 0
M  V30 65 Fe 6.0918 1.3463 3.8554 0
M  V30 66 Ag 5.1751 3.5167 4.1238 0
M  V30 67 Ag -0.5968 -2.0931 -8.6372 0
M  V30 68 Fe -1.5752 0.0209 -8.1768 0
M  V30 69 Ag -2.5812 2.0084 -7.3539 0
M  V30 70 Ag -4.5153 0.7790 2.2591 0
M  V30 71 Fe -3.6148 2.0860 4.0180 0
M  V30 72 Ag -2.4238 3.2418 5.7090 0
M  V30 73 Ag -3.8002 0.9991 0.0249 0
M  V30 74 Fe -3.5425 2.1136 -2.0545 0
M  V30 75 Ag -3.2787 3.1676 -4.1643 0
M  V30 76 Ag -4.4358 1.7578 -5.4864 0
M  V30 77 Fe -4.9858 -0.3562 -4.5542 0
M  V30 78 Ag -5.1806 -2.5472 -3.6591 0
M  V30 79 Ag 6.1423 -2.1300 1.4539 0
M  V30 80 Fe 5.5705 -0.8800 -0.4817 0
M  V30 81 Ag 4.9403 0.4077 -2.3741 0
M  V30 82 Ba -4.0662 -1.5962 2.3481 0
M  V30 83 Ga -3.2920 -1.9724 3.5504 0
M  V30 84 Ba -2.5515 -2.3799 4.7636 0
M  V30 85 Ba 2.1543 5.2713 4.0176 0
M  V30 86 Ga 0.8785 4.9864 4.7019 0
M  V30 87 Ba -0.3762 4.6598 5.4064 0
M  V30 88 Ba -0.6494 -4.6334 -6.2959 0
M  V30 89 Ga -1.6673 -4.7286 -5.2016 0
M  V30 90 Ba -2.6690 -4.8537 -4.0954 0
M  V30 91 Ba 3.3266 4.0324 5.7236 0
M  V30 92 Ga 2.0679 3.6952 6.4206 0
M  V30 93 Ba 0.7859 3.3643 7.0765 0
M  V30 94 Ba -3.0193 -1.4366 0.0417 0
M  V30 95 Ga -3.1096 -2.3008 -1.1532 0
M  V30 96 Ba -3.0632 -3.1909 -2.3315 0
M  V30 97 Ba -1.3964 1.9275 7.3453 0
M  V30 98 Ga -1.5159 0.4795 7.0636 0
M  V30 99 Ba -1.6408 -0.9700 6.7922 0
M  V30 END ATOM
M  V30 BEGIN BOND
M  V30 1 1 1 2
M  V30 2 1 1 3
M  V30 3 1 1 4
M  V30 4 1 1 5
M  V30 5 1 6 7
M  V30 6 1 6 8
M  V30 7 1 6 9
M  V30 8 1 6 10
M  V30 9 1 11 12
M  V30 10 1 11 13
M  V30 11 1 11 14
M  V30 12 1 11 15
M  V30 13 1 16 17
M  V30 14 1 16 18
M  V30 15 1 16 19
M  V30 16 1 16 20
M  V30 17 1 21 22
M  V30 18 1 21 23
M  V30 19 1 21 24
M  V30 20 1 21 25
M  V30 21 1 26 27
M  V30 22 1 26 28
M  V30 23 1 26 29
M  V30 24 1 26 30
M  V30 25 1 31 32
M  V30 26 1 31 33
M  V30 27 1 31 34
M  V30 28 1 31 35
M  V30 29 1 36 37
M  V30 30 1 36 38
M  V30 31 1 36 39
M  V30 32 1 36 40
M  V30 33 1 41 42
M  V30 34 1 41 43
M  V30 35 1 41 44
M  V30 36 1 41 45
M  V30 37 1 46 47
M  V30 38 1 47 48
M  V30 39 1 49 50
M  V30 40 1 50 51
M  V30 41 1 52 53
M  V30 42 1 53 54
M  V30 43 1 55 56
M  V30 44 1 56 57
M  V30 45 1 58 59
M  V30 46 1 59 60
M  V30 47 1 61 62
M  V30 48 1 62 63
M  V30 49 1 64 65
M  V30 50 1 65 66
M  V30 51 1 67 68
M  V30 52 1 68 69
M  V30 53 1 70 71
M  V30 54 1 71 72
M  V30 55 1 73 74
M  V30 56 1 74 75
M  V30 57 1 76 77
M  V30 58 1 77 78
M  V30 59 1 79 80
M  V30 60 1 80 81
M  V30 61 1 82 83
M  V30 62 1 83 84
M  V30 63 1 85 86
M  V30 64 1 86 87
M  V30 65 1 88 89
M  V30 66 1 89 90
M  V30 67 1 91 92
M  V30 68 1 92 93
M  V30 69 1 94 95
M  V30 70 1 95 96
M  V30 71 1 97 98
M  V30 72 1 98 99
M  V30 73 1 2 82
M  V30 74 1 3 94
M  V30 75 1 4 70
M  V30 76 1 5 73
M  V30 77 1 7 46
M  V30 78 1 8 58
M  V30 79 1 9 67
M  V30 80 1 10 88
M  V30 81 1 12 61
M  V30 82 1 13 79
M  V30 83 1 14 64
M  V30 84 1 15 55
M  V30 85 1 17 66
M  V30 86 1 18 85
M  V30 87 1 19 52
M  V30 88 1 20 91
M  V30 89 1 22 48
M  V30 90 1 23 81
M  V30 91 1 24 54
M  V30 92 1 25 49
M  V30 93 1 27 87
M  V30 94 1 28 97
M  V30 95 1 29 72
M  V30 96 1 30 93
M  V30 97 1 32 84
M  V30 98 1 33 99
M  V30 99 1 34 57
M  V30 100 1 35 63
M  V30 101 1 37 51
M  V30 102 1 38 76
M  V30 103 1 39 69
M  V30 104 1 40 75
M  V30 105 1 42 60
M  V30 106 1 43 96
M  V30 107 1 44 78
M  V30 108 1 45 90
M  V30 END BOND
M  V30 END CTAB
M  END

$$$$
