
     RDKit          3D

  0  0  0  0  0  0  0  0  0  0999 V3000
M  V30 BEGIN CTAB
M  V30 COUNTS 99 108 0 0 0
M  V30 BEGIN ATOM
M  V30 1 Pd 1.0041 -2.5097 4.0155 0
M  V30 2 Pb 0.7678 -1.6454 4.4721 0
M  V30 3 Pb 0.2752 -2.9832 4.5156 0
M  V30 4 Pb 1.7505 -2.0734 3.5123 0
M  V30 5 Pb 1.2686 -3.3812 3.5998 0
M  V30 6 Pd 4.6454 -0.7519 -2.7383 0
M  V30 7 Pb 4.7239 -0.5354 -3.7080 0
M  V30 8 Pb 3.6772 -0.9538 -2.8862 0
M  V30 9 Pb 4.5546 -0.8598 -1.7469 0
M  V30 10 Pb 5.5573 -0.3691 -2.6185 0
M  V30 11 Pd 1.9050 2.8057 -4.6303 0
M  V30 12 Pb 1.1188 3.2341 -4.1814 0
M  V30 13 Pb 1.5485 1.8954 -4.3991 0
M  V30 14 Pb 2.3219 3.7028 -4.8020 0
M  V30 15 Pb 2.6527 2.3533 -5.1147 0
M  V30 16 Pd 0.3277 3.2545 3.5185 0
M  V30 17 Pb 0.3548 4.0286 2.8873 0
M  V30 18 Pb -0.6690 3.2832 3.4740 0
M  V30 19 Pb 1.3277 3.2806 3.5091 0
M  V30 20 Pb 0.3033 2.4742 4.1508 0
M  V30 21 Pd -2.2085 0.5122 -2.6780 0
M  V30 22 Pb -2.2881 -0.5030 -2.6097 0
M  V30 23 Pb -3.1984 0.6215 -2.5653 0
M  V30 24 Pb -2.0835 1.5022 -2.7393 0
M  V30 25 Pb -1.2295 0.4248 -2.8095 0
M  V30 26 Pd 4.8553 5.7161 -1.5042 0
M  V30 27 Pb 4.9930 5.4130 -0.5599 0
M  V30 28 Pb 3.9933 6.1160 -1.2026 0
M  V30 29 Pb 4.6276 5.9141 -2.4597 0
M  V30 30 Pb 5.6768 5.2137 -1.7649 0
M  V30 31 Pd -4.2275 -4.3125 3.2264 0
M  V30 32 Pb -4.6644 -3.5762 3.7384 0
M  V30 33 Pb -3.8141 -5.0467 2.6914 0
M  V30 34 Pb -4.9366 -4.2241 2.5250 0
M  V30 35 Pb -3.5109 -4.3697 3.9247 0
M  V30 36 Pd -0.2074 -4.7233 -0.4793 0
M  V30 37 Pb -0.9370 -5.2961 -0.1080 0
M  V30 38 Pb 0.5461 -4.1956 -0.8493 0
M  V30 39 Pb 0.4141 -5.1205 0.1911 0
M  V30 40 Pb -0.8560 -4.2355 -1.0962 0
M  V30 41 Pd -6.1263 -0.0446 1.2409 0
M  V30 42 Pb -5.7814 0.8355 1.5559 0
M  V30 43 Pb -6.4117 -0.9619 0.9669 0
M  V30 44 Pb -6.1573 -0.3359 2.1954 0
M  V30 45 Pb -6.0731 0.2426 0.2833 0
M  V30 46 Ag 0.4199 4.5971 2.4040 0
M  V30 47 Fe 1.7804 5.5766 0.7254 0
M  V30 48 Ag 3.3383 6.3147 -0.9039 0
M  V30 49 Ag -1.4092 3.3470 3.3841 0
M  V30 50 Fe -3.4690 2.4441 2.6301 0
M  V30 51 Ag -5.4767 1.4497 1.8512 0
M  V30 52 Ag 2.0653 3.3856 3.4172 0
M  V30 53 Fe 3.6557 4.2313 1.8673 0
M  V30 54 Ag 5.0127 5.1305 0.1360 0
M  V30 55 Ag 6.1533 0.0753 -2.5663 0
M  V30 56 Fe 6.4863 2.3997 -2.2537 0
M  V30 57 Ag 6.2277 4.7283 -1.9023 0
M  V30 58 Ag -0.5110 0.2603 -2.8509 0
M  V30 59 Fe 0.7273 -1.6086 -2.1412 0
M  V30 60 Ag 1.0233 -3.7232 -1.1558 0
M  V30 61 Ag 2.3305 -1.7941 3.1266 0
M  V30 62 Fe 3.3919 -1.3440 1.0487 0
M  V30 63 Ag 4.5042 -0.8704 -0.9970 0
M  V30 64 Ba -5.0134 -3.0116 4.0818 0
M  V30 65 Ga -5.5977 -1.7744 3.5401 0
M  V30 66 Ba -6.1518 -0.5671 2.9071 0
M  V30 67 Ba -0.2479 -3.3684 4.8960 0
M  V30 68 Ga -1.6185 -3.8688 4.6576 0
M  V30 69 Ba -2.9889 -4.3894 4.4660 0
M  V30 70 Ba 0.5039 3.5274 -3.8638 0
M  V30 71 Ga -0.7249 2.9185 -3.3172 0
M  V30 72 Ba -1.9209 2.2325 -2.7897 0
M  V30 73 Ba 1.4811 -4.0339 3.2948 0
M  V30 74 Ga 1.1933 -4.7264 2.0263 0
M  V30 75 Ba 0.8608 -5.3613 0.7389 0
M  V30 76 Ba -3.5380 -5.5901 2.2574 0
M  V30 77 Ga -2.4898 -5.6671 1.2250 0
M  V30 78 Ba -1.4453 -5.7589 0.1900 0
M  V30 79 Ba 2.9439 -0.9917 -3.0437 0
M  V30 80 Ga 2.0849 0.0648 -3.6225 0
M  V30 81 Ba 1.3329 1.1990 -4.2039 0
M  V30 82 Ba -3.9417 0.7193 -2.5034 0
M  V30 83 Ga -4.9738 0.5782 -1.4559 0
M  V30 84 Ba -6.0365 0.4504 -0.4376 0
M  V30 85 Ba 4.7597 -0.2835 -4.4098 0
M  V30 86 Ga 4.0071 0.8313 -5.0060 0
M  V30 87 Ba 3.1855 1.9617 -5.4668 0
M  V30 88 Ba 0.5941 -1.0251 4.8668 0
M  V30 89 Ga 0.4444 0.4385 4.6961 0
M  V30 90 Ba 0.2657 1.9081 4.6480 0
M  V30 91 Ba -5.4631 -4.1303 1.9973 0
M  V30 92 Ga -6.0510 -2.9279 1.3767 0
M  V30 93 Ba -6.5834 -1.6741 0.8105 0
M  V30 94 Ba -2.3681 -1.2688 -2.6014 0
M  V30 95 Ga -1.8049 -2.5336 -2.0289 0
M  V30 96 Ba -1.3672 -3.8847 -1.5513 0
M  V30 97 Ba 2.6675 4.3648 -4.9074 0
M  V30 98 Ga 3.5380 5.2097 -4.0595 0
M  V30 99 Ba 4.4027 6.0173 -3.1704 0
M  V30 END ATOM
M  V30 BEGIN BOND
M  V30 1 1 1 2
M  V30 2 1 1 3
M  V30 3 1 1 4
M  V30 4 1 1 5
M  V30 5 1 6 7
M  V30 6 1 6 8
M  V30 7 1 6 9
M  V30 8 1 6 10
M  V30 9 1 11 12
M  V30 10 1 11 13
M  V30 11 1 11 14
M  V30 12 1 11 15
M  V30 13 1 16 17
M  V30 14 1 16 18
M  V30 15 1 16 19
M  V30 16 1 16 20
M  V30 17 1 21 22
M  V30 18 1 21 23
M  V30 19 1 21 24
M  V30 20 1 21 25
M  V30 21 1 26 27
M  V30 22 1 26 28
M  V30 23 1 26 29
M  V30 24 1 26 30
M  V30 25 1 31 32
M  V30 26 1 31 33
M  V30 27 1 31 34
M  V30 28 1 31 35
M  V30 29 1 36 37
M  V30 30 1 36 38
M  V30 31 1 36 39
M  V30 32 1 36 40
M  V30 33 1 41 42
M  V30 34 1 41 43
M  V30 35 1 41 44
M  V30 36 1 41 45
M  V30 37 1 46 47
M  V30 38 1 47 48
M  V30 39 1 49 50
M  V30 40 1 50 51
M  V30 41 1 52 53
M  V30 42 1 53 54
M  V30 43 1 55 56
M  V30 44 1 56 57
M  V30 45 1 58 59
M  V30 46 1 59 60
M  V30 47 1 61 62
M  V30 48 1 62 63
M  V30 49 1 64 65
M  V30 50 1 65 66
M  V30 51 1 67 68
M  V30 52 1 68 69
M  V30 53 1 70 71
M  V30 54 1 71 72
M  V30 55 1 73 74
M  V30 56 1 74 75
M  V30 57 1 76 77
M  V30 58 1 77 78
M  V30 59 1 79 80
M  V30 60 1 80 81
M  V30 61 1 82 83
M  V30 62 1 83 84
M  V30 63 1 85 86
M  V30 64 1 86 87
M  V30 65 1 88 89
M  V30 66 1 89 90
M  V30 67 1 91 92
M  V30 68 1 92 93
M  V30 69 1 94 95
M  V30 70 1 95 96
M  V30 71 1 97 98
M  V30 72 1 98 99
M  V30 73 1 2 88
M  V30 74 1 3 67
M  V30 75 1 4 61
M  V30 76 1 5 73
M  V30 77 1 7 85
M  V30 78 1 8 79
M  V30 79 1 9 63
M  V30 80 1 10 55
M  V30 81 1 12 70
M  V30 82 1 13 81
M  V30 83 1 14 97
M  V30 84 1 15 87
M  V30 85 1 17 46
M  V30 86 1 18 49
M  V30 87 1 19 52
M  V30 88 1 20 90
M  V30 89 1 22 94
M  V30 90 1 23 82
M  V30 91 1 24 72
M  V30 92 1 25 58
M  V30 93 1 27 54
M  V30 94 1 28 48
M  V30 95 1 29 99
M  V30 96 1 30 57
M  V30 97 1 32 64
M  V30 98 1 33 76
M  V30 99 1 34 91
M  V30 100 1 35 69
M  V30 101 1 37 78
M  V30 102 1 38 60
M  V30 103 1 39 75
M  V30 104 1 40 96
M  V30 105 1 42 51
M  V30 106 1 43 93
M  V30 107 1 44 66
M  V30 108 1 45 84
M  V30 END BOND
M  V30 END CTAB
M  END

$$$$
