
     RDKit          3D

  0  0  0  0  0  0  0  0  0  0999 V3000
M  V30 BEGIN CTAB
M  V30 COUNTS 99 108 0 0 0
M  V30 BEGIN ATOM
M  V30 1 Pd 0.1862 3.2407 1.4140 0
M  V30 2 Pb 0.4681 4.0704 0.9346 0
M  V30 3 Pb -0.0325 2.3544 1.8221 0
M  V30 4 Pb 1.0049 3.2941 1.9871 0
M  V30 5 Pb -0.5945 3.1741 0.7902 0
M  V30 6 Pd -5.6675 -3.1761 5.9781 0
M  V30 7 Pb -5.5778 -3.7692 5.1772 0
M  V30 8 Pb -4.7516 -3.4175 6.2905 0
M  V30 9 Pb -6.4944 -2.7907 5.5830 0
M  V30 10 Pb -5.7062 -2.4862 6.6990 0
M  V30 11 Pd 1.9960 -0.2464 -6.1199 0
M  V30 12 Pb 2.9200 0.1136 -6.2721 0
M  V30 13 Pb 1.0636 -0.5729 -5.9576 0
M  V30 14 Pb 2.3346 -1.1911 -6.1186 0
M  V30 15 Pb 1.6490 0.6899 -6.1623 0
M  V30 16 Pd 3.8798 -4.0383 -2.5801 0
M  V30 17 Pb 3.6939 -4.0261 -3.5632 0
M  V30 18 Pb 4.7678 -3.6034 -2.7224 0
M  V30 19 Pb 2.9924 -4.4630 -2.4011 0
M  V30 20 Pb 4.0696 -3.9777 -1.5994 0
M  V30 21 Pd -3.6853 -3.0972 -1.5004 0
M  V30 22 Pb -4.0360 -3.5298 -0.6652 0
M  V30 23 Pb -3.3416 -2.7114 -2.3581 0
M  V30 24 Pb -2.9196 -3.7397 -1.5051 0
M  V30 25 Pb -4.4428 -2.4412 -1.5237 0
M  V30 26 Pd 7.1565 1.0252 1.1019 0
M  V30 27 Pb 7.5376 0.4887 0.3517 0
M  V30 28 Pb 7.4232 1.8603 0.6254 0
M  V30 29 Pb 6.6465 1.5512 1.7811 0
M  V30 30 Pb 6.7913 0.1694 1.4669 0
M  V30 31 Pd 4.0805 4.2746 -4.5749 0
M  V30 32 Pb 3.6198 4.9013 -3.9479 0
M  V30 33 Pb 4.9215 4.3913 -4.0472 0
M  V30 34 Pb 3.2208 4.1255 -5.0589 0
M  V30 35 Pb 4.5041 3.5700 -5.1481 0
M  V30 36 Pd -5.2426 1.6401 0.9542 0
M  V30 37 Pb -5.5462 1.0748 0.1856 0
M  V30 38 Pb -4.9279 2.1687 1.7458 0
M  V30 39 Pb -5.9868 1.2506 1.4923 0
M  V30 40 Pb -4.5045 2.0269 0.4022 0
M  V30 41 Pd -2.6612 0.3691 5.5296 0
M  V30 42 Pb -2.3594 -0.5158 5.8921 0
M  V30 43 Pb -2.0185 0.2773 4.7706 0
M  V30 44 Pb -3.0002 1.2303 5.1449 0
M  V30 45 Pb -3.3272 0.4100 6.2745 0
M  V30 46 Ag -5.5034 -4.1495 4.5338 0
M  V30 47 Fe -4.8949 -4.0345 2.2379 0
M  V30 48 Ag -4.2834 -3.8989 -0.0562 0
M  V30 49 Ag 0.7156 4.6365 0.5115 0
M  V30 50 Fe 1.9684 5.1195 -1.4457 0
M  V30 51 Ag 3.2562 5.3032 -3.4309 0
M  V30 52 Ag 2.3264 -4.7717 -2.2474 0
M  V30 53 Fe -0.0065 -4.5148 -1.8860 0
M  V30 54 Ag -2.3347 -4.2078 -1.5330 0
M  V30 55 Ag 5.4299 -3.2542 -2.7369 0
M  V30 56 Fe 6.7151 -1.6177 -1.5971 0
M  V30 57 Ag 7.7022 0.0554 -0.2350 0
M  V30 58 Ag 4.2615 -3.8504 -0.8850 0
M  V30 59 Fe 5.3444 -2.2684 0.5172 0
M  V30 60 Ag 6.4744 -0.4929 1.6179 0
M  V30 61 Ag -7.0046 -2.3943 5.2151 0
M  V30 62 Fe -6.9788 -0.7163 3.5438 0
M  V30 63 Ag -6.5257 0.9158 1.8874 0
M  V30 64 Ag 1.6467 3.3139 2.3759 0
M  V30 65 Fe 3.9338 2.6748 2.4141 0
M  V30 66 Ag 6.1809 1.9285 2.2308 0
M  V30 67 Ag 7.5483 2.4481 0.1804 0
M  V30 68 Fe 6.6410 3.5555 -1.7124 0
M  V30 69 Ag 5.5187 4.4579 -3.5990 0
M  V30 70 Ag 0.3539 -0.7875 -5.8367 0
M  V30 71 Fe -1.3520 -1.6214 -4.4078 0
M  V30 72 Ag -3.0908 -2.4521 -3.0172 0
M  V30 73 Ba -4.9998 -1.9395 -1.5880 0
M  V30 74 Ga -5.3824 -0.6561 -0.9637 0
M  V30 75 Ba -5.7979 0.6288 -0.3641 0
M  V30 76 Ba 1.4019 1.3958 -6.2118 0
M  V30 77 Ga 1.9633 2.6994 -5.8182 0
M  V30 78 Ba 2.5742 3.9734 -5.4023 0
M  V30 79 Ba -5.6782 -1.9073 7.1728 0
M  V30 80 Ga -4.7933 -0.7328 7.0783 0
M  V30 81 Ba -3.8352 0.3576 6.8238 0
M  V30 82 Ba -4.0313 -3.4694 6.4845 0
M  V30 83 Ga -3.0383 -2.3857 6.3581 0
M  V30 84 Ba -2.1866 -1.1969 6.1618 0
M  V30 85 Ba 3.5985 0.4214 -6.3841 0
M  V30 86 Ga 4.2122 1.7065 -5.9833 0
M  V30 87 Ba 4.7822 3.0038 -5.5582 0
M  V30 88 Ba 2.5715 -1.9056 -6.1497 0
M  V30 89 Ga 3.0637 -2.9379 -5.2136 0
M  V30 90 Ba 3.5589 -3.9894 -4.3007 0
M  V30 91 Ba -1.1428 3.1445 0.2769 0
M  V30 92 Ga -2.5522 2.7218 0.1657 0
M  V30 93 Ba -3.9603 2.3211 -0.0209 0
M  V30 94 Ba -4.6840 2.5558 2.3434 0
M  V30 95 Ga -3.9739 2.2126 3.5939 0
M  V30 96 Ba -3.2638 1.8674 4.8439 0
M  V30 97 Ba -0.1384 1.6610 2.0878 0
M  V30 98 Ga -0.8654 0.9598 3.1616 0
M  V30 99 Ba -1.5491 0.1649 4.1981 0
M  V30 END ATOM
M  V30 BEGIN BOND
M  V30 1 1 1 2
M  V30 2 1 1 3
M  V30 3 1 1 4
M  V30 4 1 1 5
M  V30 5 1 6 7
M  V30 6 1 6 8
M  V30 7 1 6 9
M  V30 8 1 6 10
M  V30 9 1 11 12
M  V30 10 1 11 13
M  V30 11 1 11 14
M  V30 12 1 11 15
M  V30 13 1 16 17
M  V30 14 1 16 18
M  V30 15 1 16 19
M  V30 16 1 16 20
M  V30 17 1 21 22
M  V30 18 1 21 23
M  V30 19 1 21 24
M  V30 20 1 21 25
M  V30 21 1 26 27
M  V30 22 1 26 28
M  V30 23 1 26 29
M  V30 24 1 26 30
M  V30 25 1 31 32
M  V30 26 1 31 33
M  V30 27 1 31 34
M  V30 28 1 31 35
M  V30 29 1 36 37
M  V30 30 1 36 38
M  V30 31 1 36 39
M  V30 32 1 36 40
M  V30 33 1 41 42
M  V30 34 1 41 43
M  V30 35 1 41 44
M  V30 36 1 41 45
M  V30 37 1 46 47
M  V30 38 1 47 48
M  V30 39 1 49 50
M  V30 40 1 50 51
M  V30 41 1 52 53
M  V30 42 1 53 54
M  V30 43 1 55 56
M  V30 44 1 56 57
M  V30 45 1 58 59
M  V30 46 1 59 60
M  V30 47 1 61 62
M  V30 48 1 62 63
M  V30 49 1 64 65
M  V30 50 1 65 66
M  V30 51 1 67 68
M  V30 52 1 68 69
M  V30 53 1 70 71
M  V30 54 1 71 72
M  V30 55 1 73 74
M  V30 56 1 74 75
M  V30 57 1 76 77
M  V30 58 1 77 78
M  V30 59 1 79 80
M  V30 60 1 80 81
M  V30 61 1 82 83
M  V30 62 1 83 84
M  V30 63 1 85 86
M  V30 64 1 86 87
M  V30 65 1 88 89
M  V30 66 1 89 90
M  V30 67 1 91 92
M  V30 68 1 92 93
M  V30 69 1 94 95
M  V30 70 1 95 96
M  V30 71 1 97 98
M  V30 72 1 98 99
M  V30 73 1 2 49
M  V30 74 1 3 97
M  V30 75 1 4 64
M  V30 76 1 5 91
M  V30 77 1 7 46
M  V30 78 1 8 82
M  V30 79 1 9 61
M  V30 80 1 10 79
M  V30 81 1 12 85
M  V30 82 1 13 70
M  V30 83 1 14 88
M  V30 84 1 15 76
M  V30 85 1 17 90
M  V30 86 1 18 55
M  V30 87 1 19 52
M  V30 88 1 20 58
M  V30 89 1 22 48
M  V30 90 1 23 72
M  V30 91 1 24 54
M  V30 92 1 25 73
M  V30 93 1 27 57
M  V30 94 1 28 67
M  V30 95 1 29 66
M  V30 96 1 30 60
M  V30 97 1 32 51
M  V30 98 1 33 69
M  V30 99 1 34 78
M  V30 100 1 35 87
M  V30 101 1 37 75
M  V30 102 1 38 94
M  V30 103 1 39 63
M  V30 104 1 40 93
M  V30 105 1 42 84
M  V30 106 1 43 99
M  V30 107 1 44 96
M  V30 108 1 45 81
M  V30 END BOND
M  V30 END CTAB
M  END

$$$$
