
     RDKit          3D

  0  0  0  0  0  0  0  0  0  0999 V3000
M  V30 BEGIN CTAB
M  V30 COUNTS 99 108 0 0 0
M  V30 BEGIN ATOM
M  V30 1 Pd 2.4210 1.6421 -1.3876 0
M  V30 2 Pb 3.0567 0.8887 -1.5259 0
M  V30 3 Pb 1.6835 0.9955 -1.5857 0
M  V30 4 Pb 3.2016 2.2033 -1.1100 0
M  V30 5 Pb 1.7762 2.3845 -1.1794 0
M  V30 6 Pd -3.0123 -2.2041 -7.1264 0
M  V30 7 Pb -3.7101 -2.1775 -6.4106 0
M  V30 8 Pb -2.6888 -3.0900 -6.7980 0
M  V30 9 Pb -3.2617 -1.2662 -7.3616 0
M  V30 10 Pb -2.2539 -2.2051 -7.7809 0
M  V30 11 Pd -0.7320 -3.8293 4.5418 0
M  V30 12 Pb -0.2336 -4.3369 3.8406 0
M  V30 13 Pb -1.5363 -3.7441 3.9483 0
M  V30 14 Pb -1.2233 -3.3196 5.2463 0
M  V30 15 Pb 0.0914 -3.8599 5.1145 0
M  V30 16 Pd -1.6899 3.0370 6.3637 0
M  V30 17 Pb -2.1163 2.2468 6.7945 0
M  V30 18 Pb -0.8276 2.7981 6.8048 0
M  V30 19 Pb -2.5125 3.1938 5.8213 0
M  V30 20 Pb -1.1843 3.7202 5.8390 0
M  V30 21 Pd -5.0064 0.6922 -0.1616 0
M  V30 22 Pb -5.1332 0.1584 -1.0006 0
M  V30 23 Pb -4.8508 -0.1644 0.3390 0
M  V30 24 Pb -4.9602 1.2262 0.6838 0
M  V30 25 Pb -5.1399 1.5540 -0.6571 0
M  V30 26 Pd 4.6944 2.1465 3.3794 0
M  V30 27 Pb 4.3703 1.9608 4.3052 0
M  V30 28 Pb 5.3155 1.3605 3.4460 0
M  V30 29 Pb 4.9864 2.3899 2.4515 0
M  V30 30 Pb 4.0419 2.9051 3.3598 0
M  V30 31 Pd 4.2613 -3.3659 3.1812 0
M  V30 32 Pb 4.5637 -3.2309 2.2422 0
M  V30 33 Pb 4.9502 -2.6915 3.4623 0
M  V30 34 Pb 3.9009 -3.4739 4.1095 0
M  V30 35 Pb 3.5642 -4.0075 2.8616 0
M  V30 36 Pd -2.0620 3.9469 -3.4531 0
M  V30 37 Pb -2.9548 4.0167 -3.0043 0
M  V30 38 Pb -1.1791 3.8087 -3.8941 0
M  V30 39 Pb -2.5145 3.6991 -4.3098 0
M  V30 40 Pb -1.5711 4.1297 -2.6016 0
M  V30 41 Pd 1.1578 -2.0231 -5.3537 0
M  V30 42 Pb 0.7214 -2.9212 -5.3048 0
M  V30 43 Pb 0.9427 -1.8430 -4.3922 0
M  V30 44 Pb 1.5080 -1.0933 -5.4240 0
M  V30 45 Pb 1.1983 -2.1282 -6.3457 0
M  V30 46 Ag -4.2058 -2.1218 -5.8503 0
M  V30 47 Fe -4.7317 -1.1879 -3.7290 0
M  V30 48 Ag -5.2743 -0.2626 -1.6082 0
M  V30 49 Ag 3.5115 0.2991 -1.5382 0
M  V30 50 Fe 4.2513 -1.4650 -0.1430 0
M  V30 51 Ag 4.7379 -3.0596 1.5384 0
M  V30 52 Ag -3.1007 3.2509 5.3628 0
M  V30 53 Fe -4.0563 2.4669 3.3352 0
M  V30 54 Ag -4.9737 1.6539 1.3012 0
M  V30 55 Ag -0.1461 2.5871 7.0273 0
M  V30 56 Fe 2.0266 2.1872 6.1639 0
M  V30 57 Ag 4.0618 1.8881 4.9829 0
M  V30 58 Ag -0.7184 4.1282 5.4178 0
M  V30 59 Fe 1.3931 3.9432 4.3471 0
M  V30 60 Ag 3.5150 3.4377 3.4081 0
M  V30 61 Ag -1.5933 -2.9080 5.7504 0
M  V30 62 Fe -2.0736 -0.7146 6.5135 0
M  V30 63 Ag -2.3533 1.5817 7.0344 0
M  V30 64 Ag -3.4208 -0.5381 -7.4320 0
M  V30 65 Fe -3.1884 1.5341 -6.2972 0
M  V30 66 Ag -2.8175 3.4537 -4.9503 0
M  V30 67 Ag -0.5282 3.6218 -4.2071 0
M  V30 68 Fe 0.7293 1.7344 -4.8921 0
M  V30 69 Ag 1.6724 -0.3666 -5.4479 0
M  V30 70 Ag -2.1438 -3.6452 3.5141 0
M  V30 71 Fe -3.4346 -2.2293 2.1033 0
M  V30 72 Ag -4.7321 -0.8203 0.6919 0
M  V30 73 Ba -5.2366 2.2212 -0.9927 0
M  V30 74 Ga -4.4297 3.1227 -1.8423 0
M  V30 75 Ba -3.6386 4.0375 -2.6926 0
M  V30 76 Ba 0.7263 -3.8650 5.5203 0
M  V30 77 Ga 2.1578 -3.7197 5.1772 0
M  V30 78 Ba 3.5747 -3.5695 4.7802 0
M  V30 79 Ba -1.6311 -2.2249 -8.2012 0
M  V30 80 Ga -0.2282 -2.2109 -7.7447 0
M  V30 81 Ba 1.0906 -2.1832 -7.0844 0
M  V30 82 Ba -2.3585 -3.6968 -6.5101 0
M  V30 83 Ga -1.0218 -3.7380 -5.8929 0
M  V30 84 Ba 0.3248 -3.5568 -5.3244 0
M  V30 85 Ba 0.1765 -4.7109 3.3379 0
M  V30 86 Ga 1.5970 -4.6130 2.9566 0
M  V30 87 Ba 3.0243 -4.4676 2.6184 0
M  V30 88 Ba 3.8261 2.5469 -0.8731 0
M  V30 89 Ga 4.5044 2.6019 0.4393 0
M  V30 90 Ba 5.1619 2.6397 1.7630 0
M  V30 91 Ba 1.3047 2.9387 -0.9774 0
M  V30 92 Ga 0.0747 3.5828 -1.4863 0
M  V30 93 Ba -1.1550 4.2346 -1.9863 0
M  V30 94 Ba 1.1899 0.4378 -1.6849 0
M  V30 95 Ga 0.9539 -0.6026 -2.7074 0
M  V30 96 Ba 0.6908 -1.6578 -3.7080 0
M  V30 97 Ba 5.7644 0.7656 3.5629 0
M  V30 98 Ga 5.6091 -0.7072 3.5806 0
M  V30 99 Ba 5.4885 -2.1832 3.6075 0
M  V30 END ATOM
M  V30 BEGIN BOND
M  V30 1 1 1 2
M  V30 2 1 1 3
M  V30 3 1 1 4
M  V30 4 1 1 5
M  V30 5 1 6 7
M  V30 6 1 6 8
M  V30 7 1 6 9
M  V30 8 1 6 10
M  V30 9 1 11 12
M  V30 10 1 11 13
M  V30 11 1 11 14
M  V30 12 1 11 15
M  V30 13 1 16 17
M  V30 14 1 16 18
M  V30 15 1 16 19
M  V30 16 1 16 20
M  V30 17 1 21 22
M  V30 18 1 21 23
M  V30 19 1 21 24
M  V30 20 1 21 25
M  V30 21 1 26 27
M  V30 22 1 26 28
M  V30 23 1 26 29
M  V30 24 1 26 30
M  V30 25 1 31 32
M  V30 26 1 31 33
M  V30 27 1 31 34
M  V30 28 1 31 35
M  V30 29 1 36 37
M  V30 30 1 36 38
M  V30 31 1 36 39
M  V30 32 1 36 40
M  V30 33 1 41 42
M  V30 34 1 41 43
M  V30 35 1 41 44
M  V30 36 1 41 45
M  V30 37 1 46 47
M  V30 38 1 47 48
M  V30 39 1 49 50
M  V30 40 1 50 51
M  V30 41 1 52 53
M  V30 42 1 53 54
M  V30 43 1 55 56
M  V30 44 1 56 57
M  V30 45 1 58 59
M  V30 46 1 59 60
M  V30 47 1 61 62
M  V30 48 1 62 63
M  V30 49 1 64 65
M  V30 50 1 65 66
M  V30 51 1 67 68
M  V30 52 1 68 69
M  V30 53 1 70 71
M  V30 54 1 71 72
M  V30 55 1 73 74
M  V30 56 1 74 75
M  V30 57 1 76 77
M  V30 58 1 77 78
M  V30 59 1 79 80
M  V30 60 1 80 81
M  V30 61 1 82 83
M  V30 62 1 83 84
M  V30 63 1 85 86
M  V30 64 1 86 87
M  V30 65 1 88 89
M  V30 66 1 89 90
M  V30 67 1 91 92
M  V30 68 1 92 93
M  V30 69 1 94 95
M  V30 70 1 95 96
M  V30 71 1 97 98
M  V30 72 1 98 99
M  V30 73 1 2 49
M  V30 74 1 3 94
M  V30 75 1 4 88
M  V30 76 1 5 91
M  V30 77 1 7 46
M  V30 78 1 8 82
M  V30 79 1 9 64
M  V30 80 1 10 79
M  V30 81 1 12 85
M  V30 82 1 13 70
M  V30 83 1 14 61
M  V30 84 1 15 76
M  V30 85 1 17 63
M  V30 86 1 18 55
M  V30 87 1 19 52
M  V30 88 1 20 58
M  V30 89 1 22 48
M  V30 90 1 23 72
M  V30 91 1 24 54
M  V30 92 1 25 73
M  V30 93 1 27 57
M  V30 94 1 28 97
M  V30 95 1 29 90
M  V30 96 1 30 60
M  V30 97 1 32 51
M  V30 98 1 33 99
M  V30 99 1 34 78
M  V30 100 1 35 87
M  V30 101 1 37 75
M  V30 102 1 38 67
M  V30 103 1 39 66
M  V30 104 1 40 93
M  V30 105 1 42 84
M  V30 106 1 43 96
M  V30 107 1 44 69
M  V30 108 1 45 81
M  V30 END BOND
M  V30 END CTAB
M  END

$$$$
