
     RDKit          3D

  0  0  0  0  0  0  0  0  0  0999 V3000
M  V30 BEGIN CTAB
M  V30 COUNTS 99 108 0 0 0
M  V30 BEGIN ATOM
M  V30 1 Pd -2.9536 1.3555 0.0729 0
M  V30 2 Pb -3.6954 1.0413 -0.5176 0
M  V30 3 Pb -2.1416 1.6373 0.5877 0
M  V30 4 Pb -2.8951 2.2007 -0.4566 0
M  V30 5 Pb -3.0070 0.4761 0.5503 0
M  V30 6 Pd 2.2481 3.7414 7.3279 0
M  V30 7 Pb 2.7310 2.9847 6.8823 0
M  V30 8 Pb 2.4852 4.3731 6.5755 0
M  V30 9 Pb 1.8167 3.0799 7.9369 0
M  V30 10 Pb 1.7686 4.4941 7.7740 0
M  V30 11 Pd -0.0724 -6.2405 -3.8960 0
M  V30 12 Pb -1.0638 -6.0509 -4.0199 0
M  V30 13 Pb -0.1234 -6.0742 -2.9098 0
M  V30 14 Pb 0.9157 -6.3266 -3.7956 0
M  V30 15 Pb 0.0038 -6.3852 -4.8770 0
M  V30 16 Pd 4.8780 -1.2435 -2.4809 0
M  V30 17 Pb 4.9204 -2.2285 -2.6343 0
M  V30 18 Pb 4.7744 -0.2567 -2.3578 0
M  V30 19 Pb 5.0501 -1.3917 -1.5064 0
M  V30 20 Pb 4.6744 -1.0856 -3.4481 0
M  V30 21 Pd 2.4435 -2.6171 2.7201 0
M  V30 22 Pb 2.8593 -1.9743 3.3670 0
M  V30 23 Pb 1.9910 -3.2471 2.0829 0
M  V30 24 Pb 3.2071 -2.4077 2.1015 0
M  V30 25 Pb 1.7546 -2.8868 3.3971 0
M  V30 26 Pd 0.5340 3.2824 -5.8626 0
M  V30 27 Pb 1.2487 3.4565 -5.1850 0
M  V30 28 Pb -0.2055 3.0103 -6.4791 0
M  V30 29 Pb -0.1069 3.8277 -5.3276 0
M  V30 30 Pb 1.1649 2.6345 -6.2866 0
M  V30 31 Pd -3.8569 -2.5295 -6.3435 0
M  V30 32 Pb -4.3206 -2.0623 -5.5899 0
M  V30 33 Pb -3.7959 -1.6632 -6.8400 0
M  V30 34 Pb -3.3995 -2.9956 -7.0936 0
M  V30 35 Pb -3.7996 -3.3857 -5.7987 0
M  V30 36 Pd -2.3930 -1.1019 5.0456 0
M  V30 37 Pb -1.7812 -1.8863 5.1311 0
M  V30 38 Pb -2.9592 -0.2898 4.9086 0
M  V30 39 Pb -2.0774 -0.7805 5.9399 0
M  V30 40 Pb -2.6583 -1.4026 4.1319 0
M  V30 41 Pd -0.8488 5.4920 3.3443 0
M  V30 42 Pb 0.1189 5.7001 3.5540 0
M  V30 43 Pb -0.5613 4.6843 2.8278 0
M  V30 44 Pb -1.7842 5.1511 3.3093 0
M  V30 45 Pb -1.1271 6.2354 3.9484 0
M  V30 46 Ag 3.0922 2.4019 6.5730 0
M  V30 47 Fe 3.1176 0.4637 5.1962 0
M  V30 48 Ag 3.1883 -1.4805 3.8295 0
M  V30 49 Ag -4.1999 0.7684 -0.9992 0
M  V30 50 Fe -4.4965 -0.4611 -3.0090 0
M  V30 51 Ag -4.6624 -1.7020 -5.0270 0
M  V30 52 Ag 4.6342 0.4798 -2.3599 0
M  V30 53 Fe 3.2752 2.1112 -3.4239 0
M  V30 54 Ag 1.7851 3.4853 -4.6614 0
M  V30 55 Ag -0.0410 -6.3746 -5.6162 0
M  V30 56 Fe -1.3739 -5.0617 -7.0473 0
M  V30 57 Ag -2.9915 -3.4222 -7.5411 0
M  V30 58 Ag 1.3573 5.0871 7.9526 0
M  V30 59 Fe -0.1329 6.3242 6.6110 0
M  V30 60 Ag -1.2114 6.6672 4.5455 0
M  V30 61 Ag 4.4860 -0.9037 -4.1518 0
M  V30 62 Fe 3.1275 0.5391 -5.4607 0
M  V30 63 Ag 1.6593 2.1049 -6.4766 0
M  V30 64 Ag 1.6555 -6.2913 -3.7013 0
M  V30 65 Fe 3.3896 -4.7429 -3.2352 0
M  V30 66 Ag 4.8842 -2.9646 -2.7599 0
M  V30 67 Ag 1.3893 2.5572 8.2578 0
M  V30 68 Fe -0.2240 0.9502 7.5857 0
M  V30 69 Ag -1.7793 -0.5403 6.5864 0
M  V30 70 Ag -2.8242 2.8000 -0.8998 0
M  V30 71 Fe -1.7765 3.6235 -2.8624 0
M  V30 72 Ag -0.5850 4.1416 -4.8471 0
M  V30 73 Ag -3.3349 0.3341 4.7325 0
M  V30 74 Fe -3.0793 2.5890 4.0414 0
M  V30 75 Ag -2.4221 4.7719 3.3870 0
M  V30 76 Ag -0.7787 2.7472 -6.8861 0
M  V30 77 Fe -2.2854 0.9268 -7.1291 0
M  V30 78 Ag -3.6713 -1.0021 -7.1722 0
M  V30 79 Ag -0.1173 -5.9550 -2.1677 0
M  V30 80 Fe 0.7669 -4.8059 -0.2824 0
M  V30 81 Ag 1.5739 -3.7270 1.6774 0
M  V30 82 Ba 1.2701 -3.1515 3.9089 0
M  V30 83 Ga -0.0161 -2.7846 4.5335 0
M  V30 84 Ba -1.3002 -2.4575 5.1841 0
M  V30 85 Ba 5.1953 -1.5175 -0.7808 0
M  V30 86 Ga 4.4540 -1.8824 0.4456 0
M  V30 87 Ba 3.8534 -2.2434 1.7474 0
M  V30 88 Ba 2.5868 4.8414 5.9830 0
M  V30 89 Ga 1.7160 5.3289 4.8730 0
M  V30 90 Ba 0.8433 5.8150 3.7639 0
M  V30 91 Ba -1.8121 -5.9152 -4.1178 0
M  V30 92 Ga -2.7354 -4.9366 -4.7714 0
M  V30 93 Ba -3.7544 -4.0272 -5.3814 0
M  V30 94 Ba -3.0790 -0.2112 0.8476 0
M  V30 95 Ga -2.9545 -0.8887 2.1521 0
M  V30 96 Ba -2.8413 -1.6066 3.4359 0
M  V30 97 Ba -1.4922 1.8425 0.9071 0
M  V30 98 Ga -0.9504 2.9629 1.7027 0
M  V30 99 Ba -0.3387 4.0475 2.4976 0
M  V30 END ATOM
M  V30 BEGIN BOND
M  V30 1 1 1 2
M  V30 2 1 1 3
M  V30 3 1 1 4
M  V30 4 1 1 5
M  V30 5 1 6 7
M  V30 6 1 6 8
M  V30 7 1 6 9
M  V30 8 1 6 10
M  V30 9 1 11 12
M  V30 10 1 11 13
M  V30 11 1 11 14
M  V30 12 1 11 15
M  V30 13 1 16 17
M  V30 14 1 16 18
M  V30 15 1 16 19
M  V30 16 1 16 20
M  V30 17 1 21 22
M  V30 18 1 21 23
M  V30 19 1 21 24
M  V30 20 1 21 25
M  V30 21 1 26 27
M  V30 22 1 26 28
M  V30 23 1 26 29
M  V30 24 1 26 30
M  V30 25 1 31 32
M  V30 26 1 31 33
M  V30 27 1 31 34
M  V30 28 1 31 35
M  V30 29 1 36 37
M  V30 30 1 36 38
M  V30 31 1 36 39
M  V30 32 1 36 40
M  V30 33 1 41 42
M  V30 34 1 41 43
M  V30 35 1 41 44
M  V30 36 1 41 45
M  V30 37 1 46 47
M  V30 38 1 47 48
M  V30 39 1 49 50
M  V30 40 1 50 51
M  V30 41 1 52 53
M  V30 42 1 53 54
M  V30 43 1 55 56
M  V30 44 1 56 57
M  V30 45 1 58 59
M  V30 46 1 59 60
M  V30 47 1 61 62
M  V30 48 1 62 63
M  V30 49 1 64 65
M  V30 50 1 65 66
M  V30 51 1 67 68
M  V30 52 1 68 69
M  V30 53 1 70 71
M  V30 54 1 71 72
M  V30 55 1 73 74
M  V30 56 1 74 75
M  V30 57 1 76 77
M  V30 58 1 77 78
M  V30 59 1 79 80
M  V30 60 1 80 81
M  V30 61 1 82 83
M  V30 62 1 83 84
M  V30 63 1 85 86
M  V30 64 1 86 87
M  V30 65 1 88 89
M  V30 66 1 89 90
M  V30 67 1 91 92
M  V30 68 1 92 93
M  V30 69 1 94 95
M  V30 70 1 95 96
M  V30 71 1 97 98
M  V30 72 1 98 99
M  V30 73 1 2 49
M  V30 74 1 3 97
M  V30 75 1 4 70
M  V30 76 1 5 94
M  V30 77 1 7 46
M  V30 78 1 8 88
M  V30 79 1 9 67
M  V30 80 1 10 58
M  V30 81 1 12 91
M  V30 82 1 13 79
M  V30 83 1 14 64
M  V30 84 1 15 55
M  V30 85 1 17 66
M  V30 86 1 18 52
M  V30 87 1 19 85
M  V30 88 1 20 61
M  V30 89 1 22 48
M  V30 90 1 23 81
M  V30 91 1 24 87
M  V30 92 1 25 82
M  V30 93 1 27 54
M  V30 94 1 28 76
M  V30 95 1 29 72
M  V30 96 1 30 63
M  V30 97 1 32 51
M  V30 98 1 33 78
M  V30 99 1 34 57
M  V30 100 1 35 93
M  V30 101 1 37 84
M  V30 102 1 38 73
M  V30 103 1 39 69
M  V30 104 1 40 96
M  V30 105 1 42 90
M  V30 106 1 43 99
M  V30 107 1 44 75
M  V30 108 1 45 60
M  V30 END BOND
M  V30 END CTAB
M  END

$$$$
