
     RDKit          3D

  0  0  0  0  0  0  0  0  0  0999 V3000
M  V30 BEGIN CTAB
M  V30 COUNTS 99 108 0 0 0
M  V30 BEGIN ATOM
M  V30 1 Pd -3.1233 -6.1551 -2.9387 0
M  V30 2 Pb -2.3904 -5.5843 -3.3038 0
M  V30 3 Pb -3.9138 -6.6604 -2.5934 0
M  V30 4 Pb -3.3876 -6.4257 -3.8635 0
M  V30 5 Pb -2.9066 -5.8194 -2.0233 0
M  V30 6 Pd -7.3325 -4.8026 -4.4495 0
M  V30 7 Pb -7.8139 -4.2582 -3.7656 0
M  V30 8 Pb -6.7759 -5.3278 -5.0913 0
M  V30 9 Pb -7.3141 -5.5869 -3.8306 0
M  V30 10 Pb -7.2542 -3.9867 -5.0218 0
M  V30 11 Pd 1.5183 4.7979 0.5727 0
M  V30 12 Pb 2.4424 5.0533 0.2828 0
M  V30 13 Pb 0.5891 4.5530 0.8469 0
M  V30 14 Pb 1.7498 4.9490 1.5362 0
M  V30 15 Pb 1.2533 4.7069 -0.3877 0
M  V30 16 Pd 5.1116 3.0589 7.1764 0
M  V30 17 Pb 5.7688 2.3601 7.4522 0
M  V30 18 Pb 5.8498 3.5952 6.7777 0
M  V30 19 Pb 4.3764 2.4236 7.4026 0
M  V30 20 Pb 4.4538 3.7020 6.7859 0
M  V30 21 Pd -0.0947 1.0288 -3.3828 0
M  V30 22 Pb 0.8768 0.8604 -3.2112 0
M  V30 23 Pb -1.0588 1.2270 -3.5818 0
M  V30 24 Pb 0.0494 2.0058 -3.2245 0
M  V30 25 Pb -0.1970 0.0556 -3.5913 0
M  V30 26 Pd -5.8714 -0.1766 -2.8025 0
M  V30 27 Pb -6.6250 -0.7559 -2.4907 0
M  V30 28 Pb -5.7292 0.1160 -1.8555 0
M  V30 29 Pb -6.0571 -0.4772 -3.7399 0
M  V30 30 Pb -5.1436 0.4261 -3.1402 0
M  V30 31 Pd 6.5342 2.5384 0.4082 0
M  V30 32 Pb 6.0570 2.0325 -0.3105 0
M  V30 33 Pb 6.9245 1.6826 0.7546 0
M  V30 34 Pb 6.1216 3.3934 0.0930 0
M  V30 35 Pb 6.9792 3.0435 1.1462 0
M  V30 36 Pd -1.9079 0.2756 1.0980 0
M  V30 37 Pb -0.9149 0.1657 1.1109 0
M  V30 38 Pb -1.8386 1.2698 1.1940 0
M  V30 39 Pb -1.9941 -0.7201 1.0458 0
M  V30 40 Pb -2.8995 0.3846 1.0447 0
M  V30 41 Pd 5.1862 -0.6800 4.4466 0
M  V30 42 Pb 4.4492 -0.5752 5.1182 0
M  V30 43 Pb 5.8374 -0.6488 5.2049 0
M  V30 44 Pb 5.9305 -0.7324 3.7785 0
M  V30 45 Pb 4.5365 -0.6527 3.6881 0
M  V30 46 Ag 1.8825 5.0907 2.2632 0
M  V30 47 Fe 2.9223 4.6354 4.3509 0
M  V30 48 Ag 3.9784 4.1553 6.4248 0
M  V30 49 Ag -0.1755 0.0465 1.0895 0
M  V30 50 Fe 1.9321 -0.2728 2.1348 0
M  V30 51 Ag 4.0766 -0.6010 3.0989 0
M  V30 52 Ag -2.7546 -5.5140 -1.3566 0
M  V30 53 Fe -2.3953 -3.5055 -0.1412 0
M  V30 54 Ag -2.0439 -1.4691 1.0290 0
M  V30 55 Ag 1.6090 0.7358 -3.1024 0
M  V30 56 Fe 3.6458 1.1934 -1.9688 0
M  V30 57 Ag 5.6836 1.6494 -0.8363 0
M  V30 58 Ag -1.8733 -5.1154 -3.5734 0
M  V30 59 Fe -1.0476 -2.8908 -3.6607 0
M  V30 60 Ag -0.2026 -0.6742 -3.7667 0
M  V30 61 Ag 6.3672 3.9076 6.3417 0
M  V30 62 Fe 6.9804 3.8015 4.0544 0
M  V30 63 Ag 7.2604 3.4151 1.7320 0
M  V30 64 Ba -7.1495 -3.3498 -5.4033 0
M  V30 65 Ga -6.6924 -2.0201 -4.9537 0
M  V30 66 Ba -6.2305 -0.7194 -4.4301 0
M  V30 67 Ba -4.5558 -6.9900 -2.3907 0
M  V30 68 Ga -5.9221 -6.6445 -2.8222 0
M  V30 69 Ba -7.2061 -6.1588 -3.3587 0
M  V30 70 Ba 7.2082 1.0412 1.0269 0
M  V30 71 Ga 6.8511 0.1405 2.1427 0
M  V30 72 Ba 6.4777 -0.7475 3.2635 0
M  V30 73 Ba 3.8675 1.8779 7.4559 0
M  V30 74 Ga 3.8203 0.6780 6.5986 0
M  V30 75 Ba 3.9346 -0.4489 5.6526 0
M  V30 76 Ba -3.6558 -6.5852 -4.5443 0
M  V30 77 Ga -4.9594 -6.2006 -5.1112 0
M  V30 78 Ba -6.2971 -5.7273 -5.5051 0
M  V30 79 Ba -1.7565 1.4553 -3.7536 0
M  V30 80 Ga -3.1811 1.1113 -3.5514 0
M  V30 81 Ba -4.6412 0.9012 -3.4390 0
M  V30 82 Ba -8.1186 -3.8184 -3.2429 0
M  V30 83 Ga -7.6924 -2.5020 -2.7357 0
M  V30 84 Ba -7.2018 -1.1883 -2.2823 0
M  V30 85 Ba 3.1234 5.2535 0.0358 0
M  V30 86 Ga 4.4636 4.6384 -0.0363 0
M  V30 87 Ba 5.8123 4.0434 -0.1188 0
M  V30 88 Ba -5.6773 0.3125 -1.1321 0
M  V30 89 Ga -4.6414 0.3975 -0.0849 0
M  V30 90 Ba -3.6382 0.4978 0.9923 0
M  V30 91 Ba 1.0407 4.6847 -1.1071 0
M  V30 92 Ga 0.6073 3.6827 -2.0997 0
M  V30 93 Ba 0.1657 2.7431 -3.1480 0
M  V30 94 Ba 6.2339 1.7855 7.5667 0
M  V30 95 Ga 6.3356 0.5710 6.7397 0
M  V30 96 Ba 6.2872 -0.5608 5.7982 0
M  V30 97 Ba -0.1129 4.3878 1.0502 0
M  V30 98 Ga -0.9484 3.1765 1.1578 0
M  V30 99 Ba -1.8476 2.0146 1.2918 0
M  V30 END ATOM
M  V30 BEGIN BOND
M  V30 1 1 1 2
M  V30 2 1 1 3
M  V30 3 1 1 4
M  V30 4 1 1 5
M  V30 5 1 6 7
M  V30 6 1 6 8
M  V30 7 1 6 9
M  V30 8 1 6 10
M  V30 9 1 11 12
M  V30 10 1 11 13
M  V30 11 1 11 14
M  V30 12 1 11 15
M  V30 13 1 16 17
M  V30 14 1 16 18
M  V30 15 1 16 19
M  V30 16 1 16 20
M  V30 17 1 21 22
M  V30 18 1 21 23
M  V30 19 1 21 24
M  V30 20 1 21 25
M  V30 21 1 26 27
M  V30 22 1 26 28
M  V30 23 1 26 29
M  V30 24 1 26 30
M  V30 25 1 31 32
M  V30 26 1 31 33
M  V30 27 1 31 34
M  V30 28 1 31 35
M  V30 29 1 36 37
M  V30 30 1 36 38
M  V30 31 1 36 39
M  V30 32 1 36 40
M  V30 33 1 41 42
M  V30 34 1 41 43
M  V30 35 1 41 44
M  V30 36 1 41 45
M  V30 37 1 46 47
M  V30 38 1 47 48
M  V30 39 1 49 50
M  V30 40 1 50 51
M  V30 41 1 52 53
M  V30 42 1 53 54
M  V30 43 1 55 56
M  V30 44 1 56 57
M  V30 45 1 58 59
M  V30 46 1 59 60
M  V30 47 1 61 62
M  V30 48 1 62 63
M  V30 49 1 64 65
M  V30 50 1 65 66
M  V30 51 1 67 68
M  V30 52 1 68 69
M  V30 53 1 70 71
M  V30 54 1 71 72
M  V30 55 1 73 74
M  V30 56 1 74 75
M  V30 57 1 76 77
M  V30 58 1 77 78
M  V30 59 1 79 80
M  V30 60 1 80 81
M  V30 61 1 82 83
M  V30 62 1 83 84
M  V30 63 1 85 86
M  V30 64 1 86 87
M  V30 65 1 88 89
M  V30 66 1 89 90
M  V30 67 1 91 92
M  V30 68 1 92 93
M  V30 69 1 94 95
M  V30 70 1 95 96
M  V30 71 1 97 98
M  V30 72 1 98 99
M  V30 73 1 2 58
M  V30 74 1 3 67
M  V30 75 1 4 76
M  V30 76 1 5 52
M  V30 77 1 7 82
M  V30 78 1 8 78
M  V30 79 1 9 69
M  V30 80 1 10 64
M  V30 81 1 12 85
M  V30 82 1 13 97
M  V30 83 1 14 46
M  V30 84 1 15 91
M  V30 85 1 17 94
M  V30 86 1 18 61
M  V30 87 1 19 73
M  V30 88 1 20 48
M  V30 89 1 22 55
M  V30 90 1 23 79
M  V30 91 1 24 93
M  V30 92 1 25 60
M  V30 93 1 27 84
M  V30 94 1 28 88
M  V30 95 1 29 66
M  V30 96 1 30 81
M  V30 97 1 32 57
M  V30 98 1 33 70
M  V30 99 1 34 87
M  V30 100 1 35 63
M  V30 101 1 37 49
M  V30 102 1 38 99
M  V30 103 1 39 54
M  V30 104 1 40 90
M  V30 105 1 42 75
M  V30 106 1 43 96
M  V30 107 1 44 72
M  V30 108 1 45 51
M  V30 END BOND
M  V30 END CTAB
M  END

$$$$
