
     RDKit          3D

  0  0  0  0  0  0  0  0  0  0999 V3000
M  V30 BEGIN CTAB
M  V30 COUNTS 99 108 0 0 0
M  V30 BEGIN ATOM
M  V30 1 Pd 2.0802 -1.0343 -3.7566 0
M  V30 2 Pb 2.2372 -0.3170 -4.4342 0
M  V30 3 Pb 1.0972 -0.9009 -3.8742 0
M  V30 4 Pb 3.0649 -1.1632 -3.6178 0
M  V30 5 Pb 1.8998 -1.7982 -3.1360 0
M  V30 6 Pd -2.6782 -6.5257 -0.6206 0
M  V30 7 Pb -1.8298 -6.0434 -0.8479 0
M  V30 8 Pb -3.5293 -6.9569 -0.3294 0
M  V30 9 Pb -3.2562 -5.8483 -1.0845 0
M  V30 10 Pb -2.1546 -7.0750 0.0312 0
M  V30 11 Pd -2.4081 1.7978 3.7924 0
M  V30 12 Pb -2.1656 1.1661 4.5314 0
M  V30 13 Pb -3.3899 1.6756 3.9614 0
M  V30 14 Pb -1.4493 1.8117 3.5115 0
M  V30 15 Pb -2.6004 2.4961 3.1028 0
M  V30 16 Pd -7.8463 -3.2969 2.5690 0
M  V30 17 Pb -7.7038 -2.3460 2.8600 0
M  V30 18 Pb -7.6060 -3.0977 1.6150 0
M  V30 19 Pb -7.8680 -3.5814 3.5261 0
M  V30 20 Pb -7.8730 -4.2559 2.2966 0
M  V30 21 Pd 4.7035 4.3587 1.1859 0
M  V30 22 Pb 3.9527 3.7281 1.3762 0
M  V30 23 Pb 5.3518 3.5903 1.3137 0
M  V30 24 Pb 4.0993 5.0539 0.8003 0
M  V30 25 Pb 5.4623 4.9917 1.0618 0
M  V30 26 Pd -2.2127 -3.3575 4.3545 0
M  V30 27 Pb -2.3329 -2.6069 3.7065 0
M  V30 28 Pb -1.8608 -2.7231 5.0360 0
M  V30 29 Pb -2.6787 -3.8540 5.0840 0
M  V30 30 Pb -1.7271 -4.1850 4.6298 0
M  V30 31 Pd -1.8773 2.1675 -1.5136 0
M  V30 32 Pb -2.0820 2.8617 -0.8270 0
M  V30 33 Pb -1.5484 2.8761 -2.1371 0
M  V30 34 Pb -2.2271 1.4954 -0.8638 0
M  V30 35 Pb -1.7471 1.4627 -2.2125 0
M  V30 36 Pd 2.8883 4.3161 -3.8118 0
M  V30 37 Pb 2.7371 3.6462 -4.5342 0
M  V30 38 Pb 3.0080 4.9735 -3.0571 0
M  V30 39 Pb 3.8608 4.2016 -4.0392 0
M  V30 40 Pb 1.9002 4.4394 -3.7132 0
M  V30 41 Pd 7.2307 1.5026 -2.5019 0
M  V30 42 Pb 7.8521 2.2705 -2.3811 0
M  V30 43 Pb 6.6834 0.6770 -2.6683 0
M  V30 44 Pb 7.2403 1.3497 -1.5018 0
M  V30 45 Pb 7.0519 1.8658 -3.4105 0
M  V30 46 Ag -3.7610 -5.3236 -1.2851 0
M  V30 47 Fe -5.5749 -4.0952 -0.3491 0
M  V30 48 Ag -7.3115 -3.0712 0.9202 0
M  V30 49 Ag -1.7965 -7.3281 0.6388 0
M  V30 50 Fe -1.4004 -6.4014 2.7859 0
M  V30 51 Ag -1.4228 -4.8664 4.5932 0
M  V30 52 Ag -4.2016 -7.1721 -0.0849 0
M  V30 53 Fe -6.1090 -6.2630 0.9894 0
M  V30 54 Ag -7.7720 -4.9573 2.0611 0
M  V30 55 Ag -4.1292 1.5364 4.0142 0
M  V30 56 Fe -5.8800 -0.0195 3.5888 0
M  V30 57 Ag -7.5450 -1.6544 3.1177 0
M  V30 58 Ag 1.7640 -2.3955 -2.7022 0
M  V30 59 Fe 0.2602 -4.0257 -1.8482 0
M  V30 60 Ag -1.1704 -5.6953 -0.9461 0
M  V30 61 Ag -2.5574 -2.1090 3.1932 0
M  V30 62 Fe -2.4094 -0.5393 1.4186 0
M  V30 63 Ag -2.5241 1.0528 -0.3387 0
M  V30 64 Ag -0.7543 1.7496 3.2381 0
M  V30 65 Fe 1.3163 2.5678 2.4135 0
M  V30 66 Ag 3.4364 3.2204 1.5674 0
M  V30 67 Ag -7.6767 -3.8332 4.2032 0
M  V30 68 Fe -5.5661 -4.1501 5.2312 0
M  V30 69 Ag -3.2159 -4.1235 5.5266 0
M  V30 70 Ag 6.0826 5.3448 0.8675 0
M  V30 71 Fe 7.6566 4.5886 -0.7007 0
M  V30 72 Ag 8.2260 2.8878 -2.2154 0
M  V30 73 Ba 3.7941 -1.3024 -3.4937 0
M  V30 74 Ga 5.0381 -0.5786 -3.1513 0
M  V30 75 Ba 6.3493 0.0157 -2.8107 0
M  V30 76 Ba -1.9322 0.7260 5.0953 0
M  V30 77 Ga -1.7832 -0.7216 5.3293 0
M  V30 78 Ba -1.6616 -2.1796 5.5058 0
M  V30 79 Ba 3.7244 5.5564 0.3879 0
M  V30 80 Ga 3.3486 5.5191 -1.0455 0
M  V30 81 Ba 2.9863 5.4677 -2.4819 0
M  V30 82 Ba 5.8263 2.9905 1.3295 0
M  V30 83 Ga 6.5184 2.1576 0.2979 0
M  V30 84 Ba 7.2077 1.3289 -0.7389 0
M  V30 85 Ba 0.3610 -0.7950 -3.9621 0
M  V30 86 Ga -0.6528 0.0777 -3.3402 0
M  V30 87 Ba -1.6953 0.9337 -2.7433 0
M  V30 88 Ba 2.3130 0.2019 -4.9694 0
M  V30 89 Ga 2.4859 1.6632 -5.0194 0
M  V30 90 Ba 2.6600 3.1246 -5.0631 0
M  V30 91 Ba -1.3273 3.4363 -2.5832 0
M  V30 92 Ga -0.0604 3.9667 -3.1217 0
M  V30 93 Ba 1.1594 4.5609 -3.7003 0
M  V30 94 Ba -2.6965 3.0508 2.6068 0
M  V30 95 Ga -2.4944 3.2109 1.1558 0
M  V30 96 Ba -2.2870 3.3476 -0.2968 0
M  V30 97 Ba 4.5281 4.0522 -4.3646 0
M  V30 98 Ga 5.7012 3.1674 -4.1924 0
M  V30 99 Ba 6.8756 2.2886 -4.0004 0
M  V30 END ATOM
M  V30 BEGIN BOND
M  V30 1 1 1 2
M  V30 2 1 1 3
M  V30 3 1 1 4
M  V30 4 1 1 5
M  V30 5 1 6 7
M  V30 6 1 6 8
M  V30 7 1 6 9
M  V30 8 1 6 10
M  V30 9 1 11 12
M  V30 10 1 11 13
M  V30 11 1 11 14
M  V30 12 1 11 15
M  V30 13 1 16 17
M  V30 14 1 16 18
M  V30 15 1 16 19
M  V30 16 1 16 20
M  V30 17 1 21 22
M  V30 18 1 21 23
M  V30 19 1 21 24
M  V30 20 1 21 25
M  V30 21 1 26 27
M  V30 22 1 26 28
M  V30 23 1 26 29
M  V30 24 1 26 30
M  V30 25 1 31 32
M  V30 26 1 31 33
M  V30 27 1 31 34
M  V30 28 1 31 35
M  V30 29 1 36 37
M  V30 30 1 36 38
M  V30 31 1 36 39
M  V30 32 1 36 40
M  V30 33 1 41 42
M  V30 34 1 41 43
M  V30 35 1 41 44
M  V30 36 1 41 45
M  V30 37 1 46 47
M  V30 38 1 47 48
M  V30 39 1 49 50
M  V30 40 1 50 51
M  V30 41 1 52 53
M  V30 42 1 53 54
M  V30 43 1 55 56
M  V30 44 1 56 57
M  V30 45 1 58 59
M  V30 46 1 59 60
M  V30 47 1 61 62
M  V30 48 1 62 63
M  V30 49 1 64 65
M  V30 50 1 65 66
M  V30 51 1 67 68
M  V30 52 1 68 69
M  V30 53 1 70 71
M  V30 54 1 71 72
M  V30 55 1 73 74
M  V30 56 1 74 75
M  V30 57 1 76 77
M  V30 58 1 77 78
M  V30 59 1 79 80
M  V30 60 1 80 81
M  V30 61 1 82 83
M  V30 62 1 83 84
M  V30 63 1 85 86
M  V30 64 1 86 87
M  V30 65 1 88 89
M  V30 66 1 89 90
M  V30 67 1 91 92
M  V30 68 1 92 93
M  V30 69 1 94 95
M  V30 70 1 95 96
M  V30 71 1 97 98
M  V30 72 1 98 99
M  V30 73 1 2 88
M  V30 74 1 3 85
M  V30 75 1 4 73
M  V30 76 1 5 58
M  V30 77 1 7 60
M  V30 78 1 8 52
M  V30 79 1 9 46
M  V30 80 1 10 49
M  V30 81 1 12 76
M  V30 82 1 13 55
M  V30 83 1 14 64
M  V30 84 1 15 94
M  V30 85 1 17 57
M  V30 86 1 18 48
M  V30 87 1 19 67
M  V30 88 1 20 54
M  V30 89 1 22 66
M  V30 90 1 23 82
M  V30 91 1 24 79
M  V30 92 1 25 70
M  V30 93 1 27 61
M  V30 94 1 28 78
M  V30 95 1 29 69
M  V30 96 1 30 51
M  V30 97 1 32 96
M  V30 98 1 33 91
M  V30 99 1 34 63
M  V30 100 1 35 87
M  V30 101 1 37 90
M  V30 102 1 38 81
M  V30 103 1 39 97
M  V30 104 1 40 93
M  V30 105 1 42 72
M  V30 106 1 43 75
M  V30 107 1 44 84
M  V30 108 1 45 99
M  V30 END BOND
M  V30 END CTAB
M  END

$$$$
