
     RDKit          3D

  0  0  0  0  0  0  0  0  0  0999 V3000
M  V30 BEGIN CTAB
M  V30 COUNTS 99 108 0 0 0
M  V30 BEGIN ATOM
M  V30 1 Pd 3.0892 1.8022 2.3277 0
M  V30 2 Pb 3.8135 1.3134 2.8206 0
M  V30 3 Pb 2.3543 2.2832 1.8517 0
M  V30 4 Pb 3.7274 2.4839 1.9623 0
M  V30 5 Pb 2.4227 1.1688 2.7217 0
M  V30 6 Pd -7.7381 2.3379 0.9797 0
M  V30 7 Pb -7.6175 1.5981 0.3149 0
M  V30 8 Pb -7.8627 3.0836 1.6287 0
M  V30 9 Pb -7.9277 1.7063 1.7303 0
M  V30 10 Pb -7.4237 3.0077 0.3055 0
M  V30 11 Pd 3.7172 -5.7273 -1.1671 0
M  V30 12 Pb 4.7005 -5.5750 -1.2111 0
M  V30 13 Pb 2.7348 -5.9150 -1.1395 0
M  V30 14 Pb 3.6595 -5.5903 -2.1552 0
M  V30 15 Pb 3.7896 -5.7613 -0.1662 0
M  V30 16 Pd 1.6443 -0.3817 -5.9813 0
M  V30 17 Pb 2.0812 -1.2807 -5.9534 0
M  V30 18 Pb 1.2000 0.5083 -5.9649 0
M  V30 19 Pb 0.7607 -0.8420 -6.0676 0
M  V30 20 Pb 2.5366 0.0850 -5.8462 0
M  V30 21 Pd -3.8553 -3.7439 -1.9745 0
M  V30 22 Pb -4.6062 -3.0890 -2.0683 0
M  V30 23 Pb -3.1097 -4.3989 -1.8466 0
M  V30 24 Pb -3.5499 -3.5455 -2.9059 0
M  V30 25 Pb -4.1333 -3.8923 -1.0287 0
M  V30 26 Pd 4.9587 3.1652 -2.5528 0
M  V30 27 Pb 4.1591 3.6844 -2.8373 0
M  V30 28 Pb 5.7561 2.6463 -2.2556 0
M  V30 29 Pb 5.0011 3.6306 -1.6684 0
M  V30 30 Pb 4.8946 2.6301 -3.4139 0
M  V30 31 Pd 6.5288 -2.6081 1.7292 0
M  V30 32 Pb 6.2338 -1.9597 2.4350 0
M  V30 33 Pb 7.0569 -1.8850 1.2931 0
M  V30 34 Pb 5.9406 -3.3411 2.0808 0
M  V30 35 Pb 6.8432 -3.2308 1.0183 0
M  V30 36 Pd -4.2758 0.1572 4.3624 0
M  V30 37 Pb -4.4474 -0.7560 3.9994 0
M  V30 38 Pb -4.0741 1.0754 4.7142 0
M  V30 39 Pb -5.2691 0.2999 4.3515 0
M  V30 40 Pb -3.2937 -0.0357 4.3430 0
M  V30 41 Pd -4.0495 4.9918 2.2216 0
M  V30 42 Pb -4.9349 5.2009 2.6263 0
M  V30 43 Pb -3.1694 4.7710 1.8028 0
M  V30 44 Pb -3.7288 4.7117 3.1257 0
M  V30 45 Pb -4.4486 5.1545 1.3176 0
M  V30 46 Ag -7.5292 1.0682 -0.2111 0
M  V30 47 Fe -6.3500 -0.7675 -1.1535 0
M  V30 48 Ag -5.1784 -2.6041 -2.1035 0
M  V30 49 Ag -4.3246 -3.9457 -0.3090 0
M  V30 50 Fe -4.4808 -2.7655 1.7418 0
M  V30 51 Ag -4.5690 -1.4295 3.6990 0
M  V30 52 Ag 0.1081 -1.2106 -6.0968 0
M  V30 53 Fe -1.6255 -2.2984 -4.8918 0
M  V30 54 Ag -3.3040 -3.3611 -3.5901 0
M  V30 55 Ag 0.9840 1.2076 -5.8463 0
M  V30 56 Fe 1.9455 2.9324 -4.5576 0
M  V30 57 Ag 3.5321 3.9438 -3.1363 0
M  V30 58 Ag 3.6224 -5.4156 -2.8829 0
M  V30 59 Fe 3.0223 -3.7405 -4.4553 0
M  V30 60 Ag 2.3744 -1.9687 -5.8973 0
M  V30 61 Ag 1.9192 0.7129 3.0407 0
M  V30 62 Fe -0.3261 0.2601 3.6716 0
M  V30 63 Ag -2.5645 -0.2127 4.3124 0
M  V30 64 Ag 1.8090 2.6540 1.4965 0
M  V30 65 Fe -0.3574 3.6251 1.4952 0
M  V30 66 Ag -2.5200 4.6040 1.4681 0
M  V30 67 Ag 6.3318 2.2675 -1.9682 0
M  V30 68 Fe 6.9816 0.4828 -0.5500 0
M  V30 69 Ag 7.3917 -1.3481 0.8982 0
M  V30 70 Ag 2.0026 -6.0802 -1.1508 0
M  V30 71 Fe -0.2727 -5.4599 -1.4371 0
M  V30 72 Ag -2.5643 -4.8970 -1.7130 0
M  V30 73 Ba 4.3203 0.9312 3.2263 0
M  V30 74 Ga 5.1777 -0.2630 3.0634 0
M  V30 75 Ba 6.0556 -1.4488 2.9585 0
M  V30 76 Ba 3.8766 -5.7325 0.5828 0
M  V30 77 Ga 4.6700 -4.8401 1.4596 0
M  V30 78 Ba 5.4878 -3.9119 2.2746 0
M  V30 79 Ba -7.1152 3.5387 -0.1272 0
M  V30 80 Ga -5.9662 4.4121 0.1896 0
M  V30 81 Ba -4.8103 5.2031 0.6603 0
M  V30 82 Ba -7.9055 3.6514 2.1105 0
M  V30 83 Ga -6.8249 4.5340 2.5630 0
M  V30 84 Ba -5.6226 5.3066 2.8927 0
M  V30 85 Ba 5.4371 -5.4583 -1.2195 0
M  V30 86 Ga 6.2892 -4.5901 -0.3971 0
M  V30 87 Ba 7.0587 -3.6921 0.4733 0
M  V30 88 Ba 3.2151 0.4325 -5.7750 0
M  V30 89 Ga 3.9860 1.3349 -4.8676 0
M  V30 90 Ba 4.8752 2.2271 -4.0645 0
M  V30 91 Ba -8.0109 1.3031 2.3572 0
M  V30 92 Ga -7.0266 0.8033 3.3406 0
M  V30 93 Ba -6.0220 0.3170 4.3102 0
M  V30 94 Ba 4.1544 3.0416 1.6909 0
M  V30 95 Ga 4.6122 3.4823 0.3567 0
M  V30 96 Ba 5.0696 3.9192 -0.9789 0
M  V30 97 Ba -3.8610 1.7505 4.9736 0
M  V30 98 Ga -3.7051 3.1059 4.4051 0
M  V30 99 Ba -3.5624 4.4508 3.8089 0
M  V30 END ATOM
M  V30 BEGIN BOND
M  V30 1 1 1 2
M  V30 2 1 1 3
M  V30 3 1 1 4
M  V30 4 1 1 5
M  V30 5 1 6 7
M  V30 6 1 6 8
M  V30 7 1 6 9
M  V30 8 1 6 10
M  V30 9 1 11 12
M  V30 10 1 11 13
M  V30 11 1 11 14
M  V30 12 1 11 15
M  V30 13 1 16 17
M  V30 14 1 16 18
M  V30 15 1 16 19
M  V30 16 1 16 20
M  V30 17 1 21 22
M  V30 18 1 21 23
M  V30 19 1 21 24
M  V30 20 1 21 25
M  V30 21 1 26 27
M  V30 22 1 26 28
M  V30 23 1 26 29
M  V30 24 1 26 30
M  V30 25 1 31 32
M  V30 26 1 31 33
M  V30 27 1 31 34
M  V30 28 1 31 35
M  V30 29 1 36 37
M  V30 30 1 36 38
M  V30 31 1 36 39
M  V30 32 1 36 40
M  V30 33 1 41 42
M  V30 34 1 41 43
M  V30 35 1 41 44
M  V30 36 1 41 45
M  V30 37 1 46 47
M  V30 38 1 47 48
M  V30 39 1 49 50
M  V30 40 1 50 51
M  V30 41 1 52 53
M  V30 42 1 53 54
M  V30 43 1 55 56
M  V30 44 1 56 57
M  V30 45 1 58 59
M  V30 46 1 59 60
M  V30 47 1 61 62
M  V30 48 1 62 63
M  V30 49 1 64 65
M  V30 50 1 65 66
M  V30 51 1 67 68
M  V30 52 1 68 69
M  V30 53 1 70 71
M  V30 54 1 71 72
M  V30 55 1 73 74
M  V30 56 1 74 75
M  V30 57 1 76 77
M  V30 58 1 77 78
M  V30 59 1 79 80
M  V30 60 1 80 81
M  V30 61 1 82 83
M  V30 62 1 83 84
M  V30 63 1 85 86
M  V30 64 1 86 87
M  V30 65 1 88 89
M  V30 66 1 89 90
M  V30 67 1 91 92
M  V30 68 1 92 93
M  V30 69 1 94 95
M  V30 70 1 95 96
M  V30 71 1 97 98
M  V30 72 1 98 99
M  V30 73 1 2 73
M  V30 74 1 3 64
M  V30 75 1 4 94
M  V30 76 1 5 61
M  V30 77 1 7 46
M  V30 78 1 8 82
M  V30 79 1 9 91
M  V30 80 1 10 79
M  V30 81 1 12 85
M  V30 82 1 13 70
M  V30 83 1 14 58
M  V30 84 1 15 76
M  V30 85 1 17 60
M  V30 86 1 18 55
M  V30 87 1 19 52
M  V30 88 1 20 88
M  V30 89 1 22 48
M  V30 90 1 23 72
M  V30 91 1 24 54
M  V30 92 1 25 49
M  V30 93 1 27 57
M  V30 94 1 28 67
M  V30 95 1 29 96
M  V30 96 1 30 90
M  V30 97 1 32 75
M  V30 98 1 33 69
M  V30 99 1 34 78
M  V30 100 1 35 87
M  V30 101 1 37 51
M  V30 102 1 38 97
M  V30 103 1 39 93
M  V30 104 1 40 63
M  V30 105 1 42 84
M  V30 106 1 43 66
M  V30 107 1 44 99
M  V30 108 1 45 81
M  V30 END BOND
M  V30 END CTAB
M  END

$$$$
