
     RDKit          3D

  0  0  0  0  0  0  0  0  0  0999 V3000
M  V30 BEGIN CTAB
M  V30 COUNTS 99 108 0 0 0
M  V30 BEGIN ATOM
M  V30 1 Pd -3.3771 -2.6255 -3.0885 0
M  V30 2 Pb -3.1653 -1.6539 -3.2097 0
M  V30 3 Pb -3.0626 -2.8194 -4.0209 0
M  V30 4 Pb -3.7659 -2.4415 -2.1869 0
M  V30 5 Pb -3.5106 -3.6000 -2.9073 0
M  V30 6 Pd 5.2675 -1.5778 -4.1908 0
M  V30 7 Pb 4.9669 -0.9034 -3.5177 0
M  V30 8 Pb 5.4327 -2.2782 -4.9023 0
M  V30 9 Pb 5.2082 -2.2863 -3.4891 0
M  V30 10 Pb 5.2662 -0.8848 -4.9076 0
M  V30 11 Pd 1.6691 5.5925 3.5356 0
M  V30 12 Pb 0.9522 6.2508 3.7240 0
M  V30 13 Pb 2.4282 4.9573 3.3870 0
M  V30 14 Pb 1.8338 5.5408 4.5173 0
M  V30 15 Pb 1.3951 5.5748 2.5522 0
M  V30 16 Pd -0.6892 2.2335 6.6425 0
M  V30 17 Pb -0.0713 3.0016 6.8206 0
M  V30 18 Pb -1.4615 2.8465 6.4531 0
M  V30 19 Pb 0.0777 1.6028 6.7519 0
M  V30 20 Pb -1.2944 1.4547 6.4984 0
M  V30 21 Pd 2.5448 0.1899 2.9557 0
M  V30 22 Pb 2.6937 0.3330 1.9771 0
M  V30 23 Pb 3.1233 0.9922 3.0950 0
M  V30 24 Pb 2.4447 0.0698 3.9452 0
M  V30 25 Pb 1.9379 -0.5935 2.8020 0
M  V30 26 Pd -4.7780 1.5337 3.4033 0
M  V30 27 Pb -4.5446 2.3249 3.9759 0
M  V30 28 Pb -5.2008 2.1040 2.6961 0
M  V30 29 Pb -4.9601 0.7317 2.8383 0
M  V30 30 Pb -4.3684 0.9382 4.0897 0
M  V30 31 Pd -2.8100 4.6518 -0.2241 0
M  V30 32 Pb -2.6249 3.9444 -0.9098 0
M  V30 33 Pb -3.7666 4.3734 -0.1793 0
M  V30 34 Pb -1.8220 4.8982 -0.1488 0
M  V30 35 Pb -3.0391 5.3862 0.4009 0
M  V30 36 Pd 0.0909 -5.9167 -1.1221 0
M  V30 37 Pb -0.0791 -5.3751 -0.2982 0
M  V30 38 Pb 0.2907 -6.4034 -1.9703 0
M  V30 39 Pb 1.0685 -5.7413 -1.0162 0
M  V30 40 Pb -0.8878 -6.0521 -1.2863 0
M  V30 41 Pd 2.1761 -4.1626 -7.9785 0
M  V30 42 Pb 3.1564 -4.1943 -7.7342 0
M  V30 43 Pb 1.1879 -4.0455 -8.0570 0
M  V30 44 Pb 2.0062 -4.9942 -7.4532 0
M  V30 45 Pb 2.3453 -3.3036 -8.4555 0
M  V30 46 Ag 4.6644 -0.4226 -3.0288 0
M  V30 47 Fe 3.7742 0.0191 -0.8715 0
M  V30 48 Ag 2.8711 0.5105 1.2696 0
M  V30 49 Ag -2.9586 -0.9340 -3.2757 0
M  V30 50 Fe -2.7519 1.2464 -2.3505 0
M  V30 51 Ag -2.5276 3.4389 -1.4587 0
M  V30 52 Ag 1.4630 -1.1708 2.7125 0
M  V30 53 Fe 0.6449 -3.0555 1.5167 0
M  V30 54 Ag -0.1582 -4.9374 0.3065 0
M  V30 55 Ag 5.1533 -0.4953 -5.5296 0
M  V30 56 Fe 3.9110 -1.1167 -7.4343 0
M  V30 57 Ag 2.5733 -2.6258 -8.6551 0
M  V30 58 Ag 0.3570 6.6823 3.7829 0
M  V30 59 Fe -1.6573 6.7065 2.5743 0
M  V30 60 Ag -3.1097 5.9227 0.9022 0
M  V30 61 Ag 5.1067 -2.8147 -2.9683 0
M  V30 62 Fe 3.5239 -4.2358 -1.9154 0
M  V30 63 Ag 1.7980 -5.5749 -0.9874 0
M  V30 64 Ag -4.1041 -2.3371 -1.5266 0
M  V30 65 Fe -4.5727 -1.0903 0.4376 0
M  V30 66 Ag -5.0674 0.1243 2.4157 0
M  V30 67 Ag 0.4679 -6.7127 -2.6278 0
M  V30 68 Fe 1.1616 -6.2591 -4.8507 0
M  V30 69 Ag 1.8500 -5.5821 -7.0178 0
M  V30 70 Ag -2.8652 -2.9625 -4.7334 0
M  V30 71 Fe -1.2494 -3.4514 -6.4060 0
M  V30 72 Ag 0.4495 -3.9375 -7.9948 0
M  V30 73 Ba 0.6488 1.1194 6.7867 0
M  V30 74 Ga 1.5262 0.5446 5.7489 0
M  V30 75 Ba 2.3886 -0.0145 4.6901 0
M  V30 76 Ba -2.0529 3.2787 6.2727 0
M  V30 77 Ga -3.2022 3.1019 5.3547 0
M  V30 78 Ba -4.3390 2.8929 4.4280 0
M  V30 79 Ba 1.1907 5.5617 1.8089 0
M  V30 80 Ga 0.0124 5.3089 0.9145 0
M  V30 81 Ba -1.0759 5.0849 -0.0943 0
M  V30 82 Ba 5.5306 -2.7990 -5.4505 0
M  V30 83 Ga 4.6904 -3.4842 -6.4742 0
M  V30 84 Ba 3.8843 -4.1906 -7.5108 0
M  V30 85 Ba -1.7554 0.8767 6.3930 0
M  V30 86 Ga -2.9074 0.6607 5.5057 0
M  V30 87 Ba -4.0526 0.4930 4.5993 0
M  V30 88 Ba 1.8795 5.4615 5.2586 0
M  V30 89 Ga 1.1662 4.5218 6.1425 0
M  V30 90 Ba 0.4177 3.5541 6.9653 0
M  V30 91 Ba -3.5749 -4.3208 -2.7085 0
M  V30 92 Ga -2.6165 -5.2563 -2.0865 0
M  V30 93 Ba -1.6121 -6.1431 -1.4655 0
M  V30 94 Ba -5.5238 2.4856 2.1340 0
M  V30 95 Ga -5.0299 3.3282 1.0283 0
M  V30 96 Ba -4.4730 4.1641 -0.0520 0
M  V30 97 Ba 3.0240 4.5033 3.3318 0
M  V30 98 Ga 3.2750 3.0525 3.2398 0
M  V30 99 Ba 3.5493 1.6061 3.1464 0
M  V30 END ATOM
M  V30 BEGIN BOND
M  V30 1 1 1 2
M  V30 2 1 1 3
M  V30 3 1 1 4
M  V30 4 1 1 5
M  V30 5 1 6 7
M  V30 6 1 6 8
M  V30 7 1 6 9
M  V30 8 1 6 10
M  V30 9 1 11 12
M  V30 10 1 11 13
M  V30 11 1 11 14
M  V30 12 1 11 15
M  V30 13 1 16 17
M  V30 14 1 16 18
M  V30 15 1 16 19
M  V30 16 1 16 20
M  V30 17 1 21 22
M  V30 18 1 21 23
M  V30 19 1 21 24
M  V30 20 1 21 25
M  V30 21 1 26 27
M  V30 22 1 26 28
M  V30 23 1 26 29
M  V30 24 1 26 30
M  V30 25 1 31 32
M  V30 26 1 31 33
M  V30 27 1 31 34
M  V30 28 1 31 35
M  V30 29 1 36 37
M  V30 30 1 36 38
M  V30 31 1 36 39
M  V30 32 1 36 40
M  V30 33 1 41 42
M  V30 34 1 41 43
M  V30 35 1 41 44
M  V30 36 1 41 45
M  V30 37 1 46 47
M  V30 38 1 47 48
M  V30 39 1 49 50
M  V30 40 1 50 51
M  V30 41 1 52 53
M  V30 42 1 53 54
M  V30 43 1 55 56
M  V30 44 1 56 57
M  V30 45 1 58 59
M  V30 46 1 59 60
M  V30 47 1 61 62
M  V30 48 1 62 63
M  V30 49 1 64 65
M  V30 50 1 65 66
M  V30 51 1 67 68
M  V30 52 1 68 69
M  V30 53 1 70 71
M  V30 54 1 71 72
M  V30 55 1 73 74
M  V30 56 1 74 75
M  V30 57 1 76 77
M  V30 58 1 77 78
M  V30 59 1 79 80
M  V30 60 1 80 81
M  V30 61 1 82 83
M  V30 62 1 83 84
M  V30 63 1 85 86
M  V30 64 1 86 87
M  V30 65 1 88 89
M  V30 66 1 89 90
M  V30 67 1 91 92
M  V30 68 1 92 93
M  V30 69 1 94 95
M  V30 70 1 95 96
M  V30 71 1 97 98
M  V30 72 1 98 99
M  V30 73 1 2 49
M  V30 74 1 3 70
M  V30 75 1 4 64
M  V30 76 1 5 91
M  V30 77 1 7 46
M  V30 78 1 8 82
M  V30 79 1 9 61
M  V30 80 1 10 55
M  V30 81 1 12 58
M  V30 82 1 13 97
M  V30 83 1 14 88
M  V30 84 1 15 79
M  V30 85 1 17 90
M  V30 86 1 18 76
M  V30 87 1 19 73
M  V30 88 1 20 85
M  V30 89 1 22 48
M  V30 90 1 23 99
M  V30 91 1 24 75
M  V30 92 1 25 52
M  V30 93 1 27 78
M  V30 94 1 28 94
M  V30 95 1 29 66
M  V30 96 1 30 87
M  V30 97 1 32 51
M  V30 98 1 33 96
M  V30 99 1 34 81
M  V30 100 1 35 60
M  V30 101 1 37 54
M  V30 102 1 38 67
M  V30 103 1 39 63
M  V30 104 1 40 93
M  V30 105 1 42 84
M  V30 106 1 43 72
M  V30 107 1 44 69
M  V30 108 1 45 57
M  V30 END BOND
M  V30 END CTAB
M  END

$$$$
