
     RDKit          3D

  0  0  0  0  0  0  0  0  0  0999 V3000
M  V30 BEGIN CTAB
M  V30 COUNTS 99 108 0 0 0
M  V30 BEGIN ATOM
M  V30 1 Pd 1.2198 -1.2153 -6.2222 0
M  V30 2 Pb 1.6967 -0.3365 -6.1913 0
M  V30 3 Pb 0.6727 -0.9989 -5.4106 0
M  V30 4 Pb 0.7373 -2.0823 -6.2684 0
M  V30 5 Pb 1.9806 -1.6578 -6.7021 0
M  V30 6 Pd 3.0580 3.2336 4.8125 0
M  V30 7 Pb 3.8955 3.5905 4.4144 0
M  V30 8 Pb 2.2103 2.8573 5.1951 0
M  V30 9 Pb 2.5635 4.0551 4.4740 0
M  V30 10 Pb 3.5663 2.4171 5.0858 0
M  V30 11 Pd 3.4411 -4.9747 -2.0657 0
M  V30 12 Pb 4.0407 -5.1344 -2.8529 0
M  V30 13 Pb 4.1716 -4.5422 -1.5362 0
M  V30 14 Pb 2.7171 -5.4235 -2.5766 0
M  V30 15 Pb 2.7267 -4.4819 -1.5640 0
M  V30 16 Pd -3.2193 -4.5557 3.0753 0
M  V30 17 Pb -3.8354 -4.5403 2.2872 0
M  V30 18 Pb -2.5121 -5.0129 2.5333 0
M  V30 19 Pb -2.5668 -4.5475 3.8291 0
M  V30 20 Pb -3.8666 -4.0388 3.6373 0
M  V30 21 Pd -5.6606 0.2132 -1.8298 0
M  V30 22 Pb -5.2154 0.1762 -2.7239 0
M  V30 23 Pb -6.0418 0.2585 -0.8945 0
M  V30 24 Pb -5.7895 -0.7755 -1.7953 0
M  V30 25 Pb -5.4472 1.1839 -1.7684 0
M  V30 26 Pd -4.2425 0.7748 3.8018 0
M  V30 27 Pb -4.4936 -0.0936 4.2362 0
M  V30 28 Pb -3.4743 0.9126 4.4314 0
M  V30 29 Pb -4.0371 1.6387 3.3499 0
M  V30 30 Pb -5.0002 0.6439 3.1438 0
M  V30 31 Pd 3.9225 -3.9614 3.1188 0
M  V30 32 Pb 3.2555 -4.0716 3.8519 0
M  V30 33 Pb 3.3388 -4.5554 2.5639 0
M  V30 34 Pb 4.4090 -3.2945 3.6800 0
M  V30 35 Pb 4.5560 -3.8270 2.3564 0
M  V30 36 Pd -0.1568 3.8599 -4.8507 0
M  V30 37 Pb -0.7367 3.1110 -5.1694 0
M  V30 38 Pb 0.4077 4.6070 -4.4564 0
M  V30 39 Pb 0.6605 3.4215 -5.2259 0
M  V30 40 Pb -0.9633 4.2774 -4.4466 0
M  V30 41 Pd 1.5882 6.5397 0.1104 0
M  V30 42 Pb 0.5980 6.6127 0.0625 0
M  V30 43 Pb 1.6273 6.5478 -0.9049 0
M  V30 44 Pb 1.5444 6.4391 1.1212 0
M  V30 45 Pb 2.5798 6.4945 0.1568 0
M  V30 46 Ag -4.8269 0.2022 -3.3643 0
M  V30 47 Fe -3.0360 1.3049 -4.4660 0
M  V30 48 Ag -1.2177 2.5605 -5.3340 0
M  V30 49 Ag 2.5717 -2.1162 -6.8122 0
M  V30 50 Fe 3.6716 -3.6881 -5.3944 0
M  V30 51 Ag 4.3174 -5.0596 -3.5525 0
M  V30 52 Ag -2.0140 -4.5352 4.3308 0
M  V30 53 Fe 0.3432 -4.3547 4.5064 0
M  V30 54 Ag 2.6996 -4.1515 4.3444 0
M  V30 55 Ag -1.9177 -5.3080 2.1806 0
M  V30 56 Fe 0.4556 -5.2360 2.0782 0
M  V30 57 Ag 2.8114 -4.9475 2.2007 0
M  V30 58 Ag 1.5761 2.5658 5.4783 0
M  V30 59 Fe -0.6563 1.7984 5.1878 0
M  V30 60 Ag -2.8883 1.0332 4.8882 0
M  V30 61 Ag 0.4277 -1.0391 -4.6965 0
M  V30 62 Fe 1.0866 -2.3960 -2.8484 0
M  V30 63 Ag 2.1668 -3.9894 -1.4394 0
M  V30 64 Ag -5.2196 1.8515 -1.5381 0
M  V30 65 Fe -4.4821 2.5044 0.6064 0
M  V30 66 Ag -3.9702 2.2214 2.8931 0
M  V30 67 Ag 3.9731 1.8047 5.2337 0
M  V30 68 Fe 4.4016 -0.4766 4.7354 0
M  V30 69 Ag 4.6841 -2.7500 4.1134 0
M  V30 70 Ag -1.4727 4.6127 -4.0268 0
M  V30 71 Fe -1.2745 5.7457 -1.9714 0
M  V30 72 Ag -0.1220 6.6150 -0.1102 0
M  V30 73 Ag 0.4628 -2.7659 -6.2001 0
M  V30 74 Fe 1.0073 -4.5423 -4.7527 0
M  V30 75 Ag 2.1687 -5.6410 -3.0231 0
M  V30 76 Ag 4.4332 3.9011 4.0119 0
M  V30 77 Fe 4.3506 5.2323 2.0713 0
M  V30 78 Ag 3.2955 6.3975 0.3179 0
M  V30 79 Ag -4.2619 -4.5007 1.6711 0
M  V30 80 Fe -5.1177 -3.1079 -0.0504 0
M  V30 81 Ag -5.8419 -1.5063 -1.6458 0
M  V30 82 Ba 2.0467 0.3272 -6.1870 0
M  V30 83 Ga 1.6623 1.7082 -5.8370 0
M  V30 84 Ba 1.2809 3.0902 -5.4879 0
M  V30 85 Ba 0.8248 5.1851 -4.1768 0
M  V30 86 Ga 1.2149 5.8244 -2.8836 0
M  V30 87 Ba 1.6813 6.5592 -1.6687 0
M  V30 88 Ba -4.3064 -3.6309 4.0896 0
M  V30 89 Ga -4.5152 -2.1838 4.3067 0
M  V30 90 Ba -4.7350 -0.7404 4.5373 0
M  V30 91 Ba 2.1990 4.6888 4.2435 0
M  V30 92 Ga 1.8791 5.4812 3.0166 0
M  V30 93 Ba 1.4854 6.3723 1.8824 0
M  V30 94 Ba 4.7182 -4.2375 -1.1217 0
M  V30 95 Ga 4.8787 -3.9709 0.3208 0
M  V30 96 Ba 5.0092 -3.7166 1.7685 0
M  V30 97 Ba -6.3391 0.2828 -0.1946 0
M  V30 98 Ga -5.9045 0.4228 1.2228 0
M  V30 99 Ba -5.5918 0.5538 2.6727 0
M  V30 END ATOM
M  V30 BEGIN BOND
M  V30 1 1 1 2
M  V30 2 1 1 3
M  V30 3 1 1 4
M  V30 4 1 1 5
M  V30 5 1 6 7
M  V30 6 1 6 8
M  V30 7 1 6 9
M  V30 8 1 6 10
M  V30 9 1 11 12
M  V30 10 1 11 13
M  V30 11 1 11 14
M  V30 12 1 11 15
M  V30 13 1 16 17
M  V30 14 1 16 18
M  V30 15 1 16 19
M  V30 16 1 16 20
M  V30 17 1 21 22
M  V30 18 1 21 23
M  V30 19 1 21 24
M  V30 20 1 21 25
M  V30 21 1 26 27
M  V30 22 1 26 28
M  V30 23 1 26 29
M  V30 24 1 26 30
M  V30 25 1 31 32
M  V30 26 1 31 33
M  V30 27 1 31 34
M  V30 28 1 31 35
M  V30 29 1 36 37
M  V30 30 1 36 38
M  V30 31 1 36 39
M  V30 32 1 36 40
M  V30 33 1 41 42
M  V30 34 1 41 43
M  V30 35 1 41 44
M  V30 36 1 41 45
M  V30 37 1 46 47
M  V30 38 1 47 48
M  V30 39 1 49 50
M  V30 40 1 50 51
M  V30 41 1 52 53
M  V30 42 1 53 54
M  V30 43 1 55 56
M  V30 44 1 56 57
M  V30 45 1 58 59
M  V30 46 1 59 60
M  V30 47 1 61 62
M  V30 48 1 62 63
M  V30 49 1 64 65
M  V30 50 1 65 66
M  V30 51 1 67 68
M  V30 52 1 68 69
M  V30 53 1 70 71
M  V30 54 1 71 72
M  V30 55 1 73 74
M  V30 56 1 74 75
M  V30 57 1 76 77
M  V30 58 1 77 78
M  V30 59 1 79 80
M  V30 60 1 80 81
M  V30 61 1 82 83
M  V30 62 1 83 84
M  V30 63 1 85 86
M  V30 64 1 86 87
M  V30 65 1 88 89
M  V30 66 1 89 90
M  V30 67 1 91 92
M  V30 68 1 92 93
M  V30 69 1 94 95
M  V30 70 1 95 96
M  V30 71 1 97 98
M  V30 72 1 98 99
M  V30 73 1 2 82
M  V30 74 1 3 61
M  V30 75 1 4 73
M  V30 76 1 5 49
M  V30 77 1 7 76
M  V30 78 1 8 58
M  V30 79 1 9 91
M  V30 80 1 10 67
M  V30 81 1 12 51
M  V30 82 1 13 94
M  V30 83 1 14 75
M  V30 84 1 15 63
M  V30 85 1 17 79
M  V30 86 1 18 55
M  V30 87 1 19 52
M  V30 88 1 20 88
M  V30 89 1 22 46
M  V30 90 1 23 97
M  V30 91 1 24 81
M  V30 92 1 25 64
M  V30 93 1 27 90
M  V30 94 1 28 60
M  V30 95 1 29 66
M  V30 96 1 30 99
M  V30 97 1 32 54
M  V30 98 1 33 57
M  V30 99 1 34 69
M  V30 100 1 35 96
M  V30 101 1 37 48
M  V30 102 1 38 85
M  V30 103 1 39 84
M  V30 104 1 40 70
M  V30 105 1 42 72
M  V30 106 1 43 87
M  V30 107 1 44 93
M  V30 108 1 45 78
M  V30 END BOND
M  V30 END CTAB
M  END

$$$$
