
     RDKit          3D

  0  0  0  0  0  0  0  0  0  0999 V3000
M  V30 BEGIN CTAB
M  V30 COUNTS 99 108 0 0 0
M  V30 BEGIN ATOM
M  V30 1 Pd 3.9330 2.2909 -1.5403 0
M  V30 2 Pb 4.4256 2.9312 -0.9461 0
M  V30 3 Pb 3.4678 1.6504 -2.1500 0
M  V30 4 Pb 4.6835 1.6330 -1.4841 0
M  V30 5 Pb 3.1494 2.9117 -1.5896 0
M  V30 6 Pd -5.1159 -1.1020 -6.4044 0
M  V30 7 Pb -5.2744 -1.5473 -5.5215 0
M  V30 8 Pb -4.4899 -1.8360 -6.6688 0
M  V30 9 Pb -5.6226 -0.2834 -6.1385 0
M  V30 10 Pb -4.9525 -0.6751 -7.2908 0
M  V30 11 Pd -0.7391 1.8034 6.5889 0
M  V30 12 Pb -0.8719 2.6976 6.1791 0
M  V30 13 Pb -1.7023 1.5903 6.4399 0
M  V30 14 Pb -0.6498 0.8937 6.9956 0
M  V30 15 Pb 0.2607 1.9916 6.6560 0
M  V30 16 Pd 0.3675 -5.4362 5.0771 0
M  V30 17 Pb -0.0010 -4.9148 5.8442 0
M  V30 18 Pb 1.2618 -5.4072 5.5137 0
M  V30 19 Pb -0.5305 -5.4539 4.6327 0
M  V30 20 Pb 0.8329 -5.8230 4.2771 0
M  V30 21 Pd -5.2042 -1.5389 1.4532 0
M  V30 22 Pb -5.3050 -1.9495 0.5461 0
M  V30 23 Pb -5.1352 -1.1167 2.3564 0
M  V30 24 Pb -4.9332 -2.4243 1.8345 0
M  V30 25 Pb -5.4053 -0.6407 1.0658 0
M  V30 26 Pd 6.6162 -3.3874 2.5828 0
M  V30 27 Pb 6.4206 -3.7535 3.4870 0
M  V30 28 Pb 7.0482 -2.5861 2.9905 0
M  V30 29 Pb 6.7605 -2.9720 1.6863 0
M  V30 30 Pb 6.0350 -4.1197 2.2179 0
M  V30 31 Pd 4.3068 3.5837 3.8306 0
M  V30 32 Pb 4.7425 3.8889 2.9825 0
M  V30 33 Pb 5.0497 2.9276 3.9696 0
M  V30 34 Pb 3.8305 3.2556 4.6719 0
M  V30 35 Pb 3.5916 4.2585 3.6954 0
M  V30 36 Pd -3.3077 3.3927 -4.0669 0
M  V30 37 Pb -3.8311 3.2459 -3.2286 0
M  V30 38 Pb -2.7664 3.5363 -4.8990 0
M  V30 39 Pb -4.1249 3.0876 -4.5643 0
M  V30 40 Pb -2.5142 3.7087 -3.5435 0
M  V30 41 Pd -0.7878 0.2434 -7.5284 0
M  V30 42 Pb -0.9807 -0.7377 -7.5768 0
M  V30 43 Pb -0.1171 0.0792 -6.8062 0
M  V30 44 Pb -0.7132 1.2339 -7.4233 0
M  V30 45 Pb -1.4903 0.3938 -8.2181 0
M  V30 46 Ag -5.3792 -1.9164 -4.8754 0
M  V30 47 Fe -5.3818 -2.0546 -2.5031 0
M  V30 48 Ag -5.4023 -2.2502 -0.1350 0
M  V30 49 Ag -5.5081 0.0406 0.7727 0
M  V30 50 Fe -4.9045 1.6050 -0.9075 0
M  V30 51 Ag -4.2466 3.1117 -2.6197 0
M  V30 52 Ag -1.2119 -5.4556 4.3144 0
M  V30 53 Fe -2.9648 -4.2868 3.2136 0
M  V30 54 Ag -4.6918 -3.0785 2.1144 0
M  V30 55 Ag 1.9586 -5.3667 5.7742 0
M  V30 56 Fe 4.1521 -4.7443 5.1367 0
M  V30 57 Ag 6.1726 -4.0264 4.1334 0
M  V30 58 Ag -0.8534 3.3464 5.8254 0
M  V30 59 Fe 0.8435 4.4305 4.6070 0
M  V30 60 Ag 2.9897 4.6869 3.6754 0
M  V30 61 Ag 1.2876 -6.0192 3.7085 0
M  V30 62 Fe 3.3896 -5.4468 2.7486 0
M  V30 63 Ag 5.5127 -4.6346 2.0414 0
M  V30 64 Ag -0.6649 0.1978 7.2767 0
M  V30 65 Fe -0.4510 -2.1392 6.9134 0
M  V30 66 Ag -0.1921 -4.4411 6.3913 0
M  V30 67 Ag 5.2038 1.0945 -1.4470 0
M  V30 68 Fe 6.0833 -0.7591 -0.2524 0
M  V30 69 Ag 6.8553 -2.5869 1.0512 0
M  V30 70 Ag 2.5411 3.3505 -1.6263 0
M  V30 71 Fe 0.3131 3.6644 -2.3914 0
M  V30 72 Ag -1.9145 3.9590 -3.1655 0
M  V30 73 Ag 3.1549 1.1512 -2.6129 0
M  V30 74 Fe 1.7485 0.5783 -4.4379 0
M  V30 75 Ag 0.3627 -0.0747 -6.2517 0
M  V30 76 Ag 7.2678 -1.9379 3.2918 0
M  V30 77 Fe 6.5228 0.2765 3.7137 0
M  V30 78 Ag 5.6186 2.4452 4.0554 0
M  V30 79 Ag -2.4026 1.3829 6.2800 0
M  V30 80 Fe -3.7958 0.3112 4.6854 0
M  V30 81 Ag -5.0937 -0.7779 3.0235 0
M  V30 82 Ba 4.8142 3.4147 -0.5197 0
M  V30 83 Ga 4.9239 3.7542 0.9142 0
M  V30 84 Ba 5.0574 4.1180 2.3402 0
M  V30 85 Ba 1.0149 2.1268 6.7240 0
M  V30 86 Ga 2.2155 2.5805 5.9502 0
M  V30 87 Ba 3.5086 3.0119 5.3279 0
M  V30 88 Ba -4.7778 -0.3567 -7.9433 0
M  V30 89 Ga -3.4597 0.0947 -8.4051 0
M  V30 90 Ba -2.0699 0.4786 -8.6787 0
M  V30 91 Ba -3.9461 -2.3086 -6.8795 0
M  V30 92 Ga -2.5575 -1.9687 -7.2487 0
M  V30 93 Ba -1.2162 -1.4510 -7.5849 0
M  V30 94 Ba -5.9295 0.3830 -5.9846 0
M  V30 95 Ga -5.3601 1.6253 -5.4210 0
M  V30 96 Ba -4.7823 2.8649 -4.8600 0
M  V30 97 Ba -2.3064 3.6625 -5.4820 0
M  V30 98 Ga -1.5199 2.8315 -6.4163 0
M  V30 99 Ba -0.7455 1.9780 -7.3402 0
M  V30 END ATOM
M  V30 BEGIN BOND
M  V30 1 1 1 2
M  V30 2 1 1 3
M  V30 3 1 1 4
M  V30 4 1 1 5
M  V30 5 1 6 7
M  V30 6 1 6 8
M  V30 7 1 6 9
M  V30 8 1 6 10
M  V30 9 1 11 12
M  V30 10 1 11 13
M  V30 11 1 11 14
M  V30 12 1 11 15
M  V30 13 1 16 17
M  V30 14 1 16 18
M  V30 15 1 16 19
M  V30 16 1 16 20
M  V30 17 1 21 22
M  V30 18 1 21 23
M  V30 19 1 21 24
M  V30 20 1 21 25
M  V30 21 1 26 27
M  V30 22 1 26 28
M  V30 23 1 26 29
M  V30 24 1 26 30
M  V30 25 1 31 32
M  V30 26 1 31 33
M  V30 27 1 31 34
M  V30 28 1 31 35
M  V30 29 1 36 37
M  V30 30 1 36 38
M  V30 31 1 36 39
M  V30 32 1 36 40
M  V30 33 1 41 42
M  V30 34 1 41 43
M  V30 35 1 41 44
M  V30 36 1 41 45
M  V30 37 1 46 47
M  V30 38 1 47 48
M  V30 39 1 49 50
M  V30 40 1 50 51
M  V30 41 1 52 53
M  V30 42 1 53 54
M  V30 43 1 55 56
M  V30 44 1 56 57
M  V30 45 1 58 59
M  V30 46 1 59 60
M  V30 47 1 61 62
M  V30 48 1 62 63
M  V30 49 1 64 65
M  V30 50 1 65 66
M  V30 51 1 67 68
M  V30 52 1 68 69
M  V30 53 1 70 71
M  V30 54 1 71 72
M  V30 55 1 73 74
M  V30 56 1 74 75
M  V30 57 1 76 77
M  V30 58 1 77 78
M  V30 59 1 79 80
M  V30 60 1 80 81
M  V30 61 1 82 83
M  V30 62 1 83 84
M  V30 63 1 85 86
M  V30 64 1 86 87
M  V30 65 1 88 89
M  V30 66 1 89 90
M  V30 67 1 91 92
M  V30 68 1 92 93
M  V30 69 1 94 95
M  V30 70 1 95 96
M  V30 71 1 97 98
M  V30 72 1 98 99
M  V30 73 1 2 82
M  V30 74 1 3 73
M  V30 75 1 4 67
M  V30 76 1 5 70
M  V30 77 1 7 46
M  V30 78 1 8 91
M  V30 79 1 9 94
M  V30 80 1 10 88
M  V30 81 1 12 58
M  V30 82 1 13 79
M  V30 83 1 14 64
M  V30 84 1 15 85
M  V30 85 1 17 66
M  V30 86 1 18 55
M  V30 87 1 19 52
M  V30 88 1 20 61
M  V30 89 1 22 48
M  V30 90 1 23 81
M  V30 91 1 24 54
M  V30 92 1 25 49
M  V30 93 1 27 57
M  V30 94 1 28 76
M  V30 95 1 29 69
M  V30 96 1 30 63
M  V30 97 1 32 84
M  V30 98 1 33 78
M  V30 99 1 34 87
M  V30 100 1 35 60
M  V30 101 1 37 51
M  V30 102 1 38 97
M  V30 103 1 39 96
M  V30 104 1 40 72
M  V30 105 1 42 93
M  V30 106 1 43 75
M  V30 107 1 44 99
M  V30 108 1 45 90
M  V30 END BOND
M  V30 END CTAB
M  END

$$$$
