
     RDKit          3D

  0  0  0  0  0  0  0  0  0  0999 V3000
M  V30 BEGIN CTAB
M  V30 COUNTS 99 108 0 0 0
M  V30 BEGIN ATOM
M  V30 1 Pd 0.6437 -6.4887 -0.1215 0
M  V30 2 Pb 0.0782 -6.2583 0.6727 0
M  V30 3 Pb 1.1666 -6.7058 -0.9452 0
M  V30 4 Pb 0.1931 -7.3792 -0.2056 0
M  V30 5 Pb 1.1150 -5.6088 -0.0641 0
M  V30 6 Pd -1.4124 -8.2385 -4.2521 0
M  V30 7 Pb -2.3991 -8.3855 -4.2820 0
M  V30 8 Pb -1.3367 -8.8214 -3.4448 0
M  V30 9 Pb -0.4337 -8.0512 -4.1814 0
M  V30 10 Pb -1.5174 -7.5493 -4.9684 0
M  V30 11 Pd -2.6146 3.3258 0.3853 0
M  V30 12 Pb -2.8111 3.2666 1.3659 0
M  V30 13 Pb -2.3566 3.4225 -0.5773 0
M  V30 14 Pb -2.2471 4.2403 0.5403 0
M  V30 15 Pb -3.0518 2.4408 0.1948 0
M  V30 16 Pd 2.7913 8.2212 2.9390 0
M  V30 17 Pb 3.6898 8.2673 3.3711 0
M  V30 18 Pb 2.3653 7.8883 3.7846 0
M  V30 19 Pb 3.2252 8.5061 2.0792 0
M  V30 20 Pb 1.9077 8.1418 2.4858 0
M  V30 21 Pd -2.9783 -2.5415 1.0973 0
M  V30 22 Pb -2.1445 -2.0668 1.3637 0
M  V30 23 Pb -3.8142 -3.0237 0.8324 0
M  V30 24 Pb -3.3356 -1.7096 0.6634 0
M  V30 25 Pb -2.6206 -3.3709 1.5328 0
M  V30 26 Pd -4.4597 -4.5590 -3.4740 0
M  V30 27 Pb -4.7938 -5.4798 -3.6681 0
M  V30 28 Pb -4.1035 -3.6530 -3.2463 0
M  V30 29 Pb -3.9020 -4.6159 -4.3042 0
M  V30 30 Pb -4.9770 -4.5337 -2.6198 0
M  V30 31 Pd 0.7156 3.4437 4.4963 0
M  V30 32 Pb 0.6804 2.5564 4.0449 0
M  V30 33 Pb 1.7079 3.3359 4.5230 0
M  V30 34 Pb -0.2850 3.4969 4.4436 0
M  V30 35 Pb 0.7841 4.3519 4.9185 0
M  V30 36 Pd 1.0805 0.9874 -2.1075 0
M  V30 37 Pb 1.9631 1.4629 -2.1423 0
M  V30 38 Pb 0.5993 1.7730 -2.4901 0
M  V30 39 Pb 1.5127 0.1967 -1.6750 0
M  V30 40 Pb 0.1886 0.5349 -2.0954 0
M  V30 41 Pd 6.3589 5.8112 0.9551 0
M  V30 42 Pb 6.1108 6.6274 0.4375 0
M  V30 43 Pb 6.5460 6.3974 1.7416 0
M  V30 44 Pb 6.4177 5.0286 1.5657 0
M  V30 45 Pb 6.1084 5.2148 0.1899 0
M  V30 46 Ag -2.0024 4.9407 0.6352 0
M  V30 47 Fe -0.3862 6.5040 1.3892 0
M  V30 48 Ag 1.2469 8.0448 2.1529 0
M  V30 49 Ag 2.6271 1.8162 -2.1810 0
M  V30 50 Fe 4.2615 3.2874 -1.2759 0
M  V30 51 Ag 5.8944 4.7589 -0.3687 0
M  V30 52 Ag 2.4450 3.2113 4.4824 0
M  V30 53 Fe 4.4777 3.7354 3.3804 0
M  V30 54 Ag 6.3077 4.5114 2.0894 0
M  V30 55 Ag 1.4872 -4.9580 -0.0502 0
M  V30 56 Fe 1.6583 -2.6754 -0.6821 0
M  V30 57 Ag 1.8114 -0.3942 -1.3236 0
M  V30 58 Ag -3.8584 -2.9819 -3.0188 0
M  V30 59 Fe -2.1372 -1.4023 -2.5900 0
M  V30 60 Ag -0.5099 0.2617 -2.1169 0
M  V30 61 Ag -1.5159 -1.7277 1.5782 0
M  V30 62 Fe -0.4262 0.0924 2.6360 0
M  V30 63 Ag 0.6876 1.9006 3.6888 0
M  V30 64 Ba -1.6475 -6.9789 -5.4374 0
M  V30 65 Ga -2.5428 -5.8217 -5.2404 0
M  V30 66 Ba -3.4727 -4.7230 -4.9120 0
M  V30 67 Ba 1.5107 -6.8760 -1.5888 0
M  V30 68 Ga 0.9598 -7.3884 -2.8558 0
M  V30 69 Ba 0.2901 -7.8990 -4.0649 0
M  V30 70 Ba 3.5847 8.6851 1.4406 0
M  V30 71 Ga 4.7040 8.0272 0.7348 0
M  V30 72 Ba 5.8202 7.2550 0.1512 0
M  V30 73 Ba -0.1216 -8.0525 -0.3172 0
M  V30 74 Ga -0.7086 -8.6691 -1.5223 0
M  V30 75 Ba -1.2709 -9.1758 -2.7885 0
M  V30 76 Ba -4.4421 -3.3764 0.6208 0
M  V30 77 Ga -4.9091 -3.9478 -0.6560 0
M  V30 78 Ba -5.3248 -4.5029 -1.9573 0
M  V30 79 Ba -3.1457 -8.4279 -4.2902 0
M  V30 80 Ga -4.1289 -7.3564 -4.0639 0
M  V30 81 Ba -4.9879 -6.1871 -3.8170 0
M  V30 82 Ba -2.9158 3.2788 2.1107 0
M  V30 83 Ga -1.9881 3.3795 3.2586 0
M  V30 84 Ba -1.0362 3.4809 4.3865 0
M  V30 85 Ba -3.4312 1.8184 -0.0024 0
M  V30 86 Ga -3.4731 0.3538 0.2083 0
M  V30 87 Ba -3.6412 -1.1130 0.3188 0
M  V30 88 Ba -0.3641 -6.0885 1.2565 0
M  V30 89 Ga -1.3515 -5.0300 1.5557 0
M  V30 90 Ba -2.3428 -3.9811 1.8751 0
M  V30 91 Ba 4.3938 8.2726 3.6233 0
M  V30 92 Ga 5.5614 7.5861 3.0482 0
M  V30 93 Ba 6.6131 6.8340 2.3456 0
M  V30 94 Ba 2.0266 7.6260 4.4047 0
M  V30 95 Ga 1.4437 6.3282 4.8141 0
M  V30 96 Ba 0.8586 5.0339 5.2312 0
M  V30 97 Ba -2.1094 3.5306 -1.2786 0
M  V30 98 Ga -0.9878 2.9581 -2.0460 0
M  V30 99 Ba 0.1533 2.3229 -2.7307 0
M  V30 END ATOM
M  V30 BEGIN BOND
M  V30 1 1 1 2
M  V30 2 1 1 3
M  V30 3 1 1 4
M  V30 4 1 1 5
M  V30 5 1 6 7
M  V30 6 1 6 8
M  V30 7 1 6 9
M  V30 8 1 6 10
M  V30 9 1 11 12
M  V30 10 1 11 13
M  V30 11 1 11 14
M  V30 12 1 11 15
M  V30 13 1 16 17
M  V30 14 1 16 18
M  V30 15 1 16 19
M  V30 16 1 16 20
M  V30 17 1 21 22
M  V30 18 1 21 23
M  V30 19 1 21 24
M  V30 20 1 21 25
M  V30 21 1 26 27
M  V30 22 1 26 28
M  V30 23 1 26 29
M  V30 24 1 26 30
M  V30 25 1 31 32
M  V30 26 1 31 33
M  V30 27 1 31 34
M  V30 28 1 31 35
M  V30 29 1 36 37
M  V30 30 1 36 38
M  V30 31 1 36 39
M  V30 32 1 36 40
M  V30 33 1 41 42
M  V30 34 1 41 43
M  V30 35 1 41 44
M  V30 36 1 41 45
M  V30 37 1 46 47
M  V30 38 1 47 48
M  V30 39 1 49 50
M  V30 40 1 50 51
M  V30 41 1 52 53
M  V30 42 1 53 54
M  V30 43 1 55 56
M  V30 44 1 56 57
M  V30 45 1 58 59
M  V30 46 1 59 60
M  V30 47 1 61 62
M  V30 48 1 62 63
M  V30 49 1 64 65
M  V30 50 1 65 66
M  V30 51 1 67 68
M  V30 52 1 68 69
M  V30 53 1 70 71
M  V30 54 1 71 72
M  V30 55 1 73 74
M  V30 56 1 74 75
M  V30 57 1 76 77
M  V30 58 1 77 78
M  V30 59 1 79 80
M  V30 60 1 80 81
M  V30 61 1 82 83
M  V30 62 1 83 84
M  V30 63 1 85 86
M  V30 64 1 86 87
M  V30 65 1 88 89
M  V30 66 1 89 90
M  V30 67 1 91 92
M  V30 68 1 92 93
M  V30 69 1 94 95
M  V30 70 1 95 96
M  V30 71 1 97 98
M  V30 72 1 98 99
M  V30 73 1 2 88
M  V30 74 1 3 67
M  V30 75 1 4 73
M  V30 76 1 5 55
M  V30 77 1 7 79
M  V30 78 1 8 75
M  V30 79 1 9 69
M  V30 80 1 10 64
M  V30 81 1 12 82
M  V30 82 1 13 97
M  V30 83 1 14 46
M  V30 84 1 15 85
M  V30 85 1 17 91
M  V30 86 1 18 94
M  V30 87 1 19 70
M  V30 88 1 20 48
M  V30 89 1 22 61
M  V30 90 1 23 76
M  V30 91 1 24 87
M  V30 92 1 25 90
M  V30 93 1 27 81
M  V30 94 1 28 58
M  V30 95 1 29 66
M  V30 96 1 30 78
M  V30 97 1 32 63
M  V30 98 1 33 52
M  V30 99 1 34 84
M  V30 100 1 35 96
M  V30 101 1 37 49
M  V30 102 1 38 99
M  V30 103 1 39 57
M  V30 104 1 40 60
M  V30 105 1 42 72
M  V30 106 1 43 93
M  V30 107 1 44 54
M  V30 108 1 45 51
M  V30 END BOND
M  V30 END CTAB
M  END

$$$$
