
     RDKit          3D

  0  0  0  0  0  0  0  0  0  0999 V3000
M  V30 BEGIN CTAB
M  V30 COUNTS 99 108 0 0 0
M  V30 BEGIN ATOM
M  V30 1 Pd 2.7327 5.6798 1.8544 0
M  V30 2 Pb 2.5753 5.8353 0.8816 0
M  V30 3 Pb 1.7382 5.7230 1.9706 0
M  V30 4 Pb 2.8830 5.4930 2.8251 0
M  V30 5 Pb 3.7149 5.5674 1.7047 0
M  V30 6 Pd -0.1391 -4.1717 -0.6212 0
M  V30 7 Pb -0.1810 -4.7419 0.2037 0
M  V30 8 Pb 0.0078 -3.5879 -1.4437 0
M  V30 9 Pb -0.8947 -3.6405 -0.2258 0
M  V30 10 Pb 0.6648 -4.6931 -0.8890 0
M  V30 11 Pd -0.4626 -2.6087 4.0028 0
M  V30 12 Pb -0.6444 -1.6274 3.9699 0
M  V30 13 Pb -1.3382 -2.7584 3.5496 0
M  V30 14 Pb -0.2810 -3.5812 3.8784 0
M  V30 15 Pb 0.4074 -2.4496 4.4626 0
M  V30 16 Pd -2.6007 -3.8970 -1.1306 0
M  V30 17 Pb -3.5657 -4.1261 -1.2214 0
M  V30 18 Pb -2.7791 -3.6837 -0.1700 0
M  V30 19 Pb -1.7078 -3.4142 -1.1504 0
M  V30 20 Pb -2.5010 -4.1166 -2.0958 0
M  V30 21 Pd -0.6134 0.4522 -4.7587 0
M  V30 22 Pb -0.2686 1.0486 -4.0367 0
M  V30 23 Pb -0.1798 -0.3488 -4.3070 0
M  V30 24 Pb -1.0936 1.2133 -5.1942 0
M  V30 25 Pb -0.9560 -0.1953 -5.4302 0
M  V30 26 Pd -4.5868 -0.1363 -0.6032 0
M  V30 27 Pb -5.1562 -0.8402 -1.0331 0
M  V30 28 Pb -4.0421 0.5023 -0.0632 0
M  V30 29 Pb -4.0675 -0.8644 -0.1479 0
M  V30 30 Pb -5.0838 0.6136 -1.0414 0
M  V30 31 Pd 5.4869 1.8792 3.6640 0
M  V30 32 Pb 5.0474 2.5820 4.2228 0
M  V30 33 Pb 5.8630 1.1624 3.0771 0
M  V30 34 Pb 5.1120 1.1603 4.2434 0
M  V30 35 Pb 5.8329 2.6033 3.0672 0
M  V30 36 Pd 3.1326 -1.7233 0.3004 0
M  V30 37 Pb 3.4107 -2.6681 0.1417 0
M  V30 38 Pb 2.2401 -1.8921 -0.1588 0
M  V30 39 Pb 2.8693 -0.7631 0.3278 0
M  V30 40 Pb 4.0401 -1.5194 0.6776 0
M  V30 41 Pd -2.9215 4.5269 -2.5933 0
M  V30 42 Pb -3.8287 4.1183 -2.4789 0
M  V30 43 Pb -2.9225 4.2755 -3.5598 0
M  V30 44 Pb -2.0045 4.9076 -2.6950 0
M  V30 45 Pb -2.8549 4.7603 -1.6214 0
M  V30 46 Ag 2.3829 5.9250 0.1649 0
M  V30 47 Fe 0.6101 5.6032 -1.3777 0
M  V30 48 Ag -1.3072 5.1776 -2.7077 0
M  V30 49 Ag -0.8282 -0.9216 3.8037 0
M  V30 50 Fe -2.1607 0.2169 2.2057 0
M  V30 51 Ag -3.6142 0.8499 0.4417 0
M  V30 52 Ag 0.9859 5.7220 1.9745 0
M  V30 53 Fe -0.9414 5.3574 0.6304 0
M  V30 54 Ag -2.7074 4.9438 -0.9071 0
M  V30 55 Ag 0.0186 1.4021 -3.4446 0
M  V30 56 Fe 1.3145 0.9231 -1.5199 0
M  V30 57 Ag 2.6090 -0.0781 0.1928 0
M  V30 58 Ag 1.0540 -2.2853 4.7977 0
M  V30 59 Fe 2.9663 -0.8842 4.7938 0
M  V30 60 Ag 4.8061 0.6022 4.6335 0
M  V30 61 Ag -2.4638 -4.1802 -2.8353 0
M  V30 62 Fe -1.9233 -2.7756 -4.6520 0
M  V30 63 Ag -1.2004 -0.8168 -5.7473 0
M  V30 64 Ba -1.4828 1.7766 -5.4999 0
M  V30 65 Ga -2.1897 2.9338 -4.9225 0
M  V30 66 Ba -2.8744 4.0685 -4.2777 0
M  V30 67 Ba 3.0371 5.3220 3.5387 0
M  V30 68 Ga 3.8525 4.2385 4.1179 0
M  V30 69 Ba 4.6867 3.1215 4.5983 0
M  V30 70 Ba 6.1028 0.5936 2.6509 0
M  V30 71 Ga 5.4155 -0.3852 1.7829 0
M  V30 72 Ba 4.7406 -1.3710 0.9131 0
M  V30 73 Ba 1.3320 -5.0097 -0.9745 0
M  V30 74 Ga 2.5518 -4.3164 -0.5564 0
M  V30 75 Ba 3.5563 -3.3708 -0.0648 0
M  V30 76 Ba -1.0991 -2.9602 -1.2714 0
M  V30 77 Ga 0.2475 -2.5081 -0.8003 0
M  V30 78 Ba 1.6043 -1.9226 -0.5863 0
M  V30 79 Ba -4.3009 -4.1057 -1.3495 0
M  V30 80 Ga -5.0432 -2.8320 -1.3429 0
M  V30 81 Ba -5.5392 -1.4453 -1.2642 0
M  V30 82 Ba -1.9981 -2.8723 3.2182 0
M  V30 83 Ga -2.4606 -3.2072 1.8596 0
M  V30 84 Ba -3.0056 -3.5401 0.5316 0
M  V30 85 Ba -0.1605 -5.1501 0.8371 0
M  V30 86 Ga -0.1719 -4.7849 2.2680 0
M  V30 87 Ba -0.1981 -4.2913 3.6593 0
M  V30 88 Ba 0.2584 -3.2065 -2.0631 0
M  V30 89 Ga 0.1038 -2.0452 -2.9911 0
M  V30 90 Ba 0.1597 -0.9812 -4.0397 0
M  V30 91 Ba -1.4493 -3.3127 0.1720 0
M  V30 92 Ga -2.5398 -2.3109 0.1171 0
M  V30 93 Ba -3.6836 -1.3791 0.2459 0
M  V30 94 Ba -5.4362 1.1977 -1.3551 0
M  V30 95 Ga -4.9804 2.4990 -1.8838 0
M  V30 96 Ba -4.5033 3.7947 -2.4072 0
M  V30 97 Ba 4.4457 5.4286 1.6088 0
M  V30 98 Ga 5.2895 4.3216 2.0969 0
M  V30 99 Ba 6.0479 3.1757 2.6328 0
M  V30 END ATOM
M  V30 BEGIN BOND
M  V30 1 1 1 2
M  V30 2 1 1 3
M  V30 3 1 1 4
M  V30 4 1 1 5
M  V30 5 1 6 7
M  V30 6 1 6 8
M  V30 7 1 6 9
M  V30 8 1 6 10
M  V30 9 1 11 12
M  V30 10 1 11 13
M  V30 11 1 11 14
M  V30 12 1 11 15
M  V30 13 1 16 17
M  V30 14 1 16 18
M  V30 15 1 16 19
M  V30 16 1 16 20
M  V30 17 1 21 22
M  V30 18 1 21 23
M  V30 19 1 21 24
M  V30 20 1 21 25
M  V30 21 1 26 27
M  V30 22 1 26 28
M  V30 23 1 26 29
M  V30 24 1 26 30
M  V30 25 1 31 32
M  V30 26 1 31 33
M  V30 27 1 31 34
M  V30 28 1 31 35
M  V30 29 1 36 37
M  V30 30 1 36 38
M  V30 31 1 36 39
M  V30 32 1 36 40
M  V30 33 1 41 42
M  V30 34 1 41 43
M  V30 35 1 41 44
M  V30 36 1 41 45
M  V30 37 1 46 47
M  V30 38 1 47 48
M  V30 39 1 49 50
M  V30 40 1 50 51
M  V30 41 1 52 53
M  V30 42 1 53 54
M  V30 43 1 55 56
M  V30 44 1 56 57
M  V30 45 1 58 59
M  V30 46 1 59 60
M  V30 47 1 61 62
M  V30 48 1 62 63
M  V30 49 1 64 65
M  V30 50 1 65 66
M  V30 51 1 67 68
M  V30 52 1 68 69
M  V30 53 1 70 71
M  V30 54 1 71 72
M  V30 55 1 73 74
M  V30 56 1 74 75
M  V30 57 1 76 77
M  V30 58 1 77 78
M  V30 59 1 79 80
M  V30 60 1 80 81
M  V30 61 1 82 83
M  V30 62 1 83 84
M  V30 63 1 85 86
M  V30 64 1 86 87
M  V30 65 1 88 89
M  V30 66 1 89 90
M  V30 67 1 91 92
M  V30 68 1 92 93
M  V30 69 1 94 95
M  V30 70 1 95 96
M  V30 71 1 97 98
M  V30 72 1 98 99
M  V30 73 1 2 46
M  V30 74 1 3 52
M  V30 75 1 4 67
M  V30 76 1 5 97
M  V30 77 1 7 85
M  V30 78 1 8 88
M  V30 79 1 9 91
M  V30 80 1 10 73
M  V30 81 1 12 49
M  V30 82 1 13 82
M  V30 83 1 14 87
M  V30 84 1 15 58
M  V30 85 1 17 79
M  V30 86 1 18 84
M  V30 87 1 19 76
M  V30 88 1 20 61
M  V30 89 1 22 55
M  V30 90 1 23 90
M  V30 91 1 24 64
M  V30 92 1 25 63
M  V30 93 1 27 81
M  V30 94 1 28 51
M  V30 95 1 29 93
M  V30 96 1 30 94
M  V30 97 1 32 69
M  V30 98 1 33 70
M  V30 99 1 34 60
M  V30 100 1 35 99
M  V30 101 1 37 75
M  V30 102 1 38 78
M  V30 103 1 39 57
M  V30 104 1 40 72
M  V30 105 1 42 96
M  V30 106 1 43 66
M  V30 107 1 44 48
M  V30 108 1 45 54
M  V30 END BOND
M  V30 END CTAB
M  END

$$$$
