
     RDKit          3D

  0  0  0  0  0  0  0  0  0  0999 V3000
M  V30 BEGIN CTAB
M  V30 COUNTS 99 108 0 0 0
M  V30 BEGIN ATOM
M  V30 1 Pd -4.0634 -0.5277 2.1006 0
M  V30 2 Pb -3.7073 0.3284 2.4802 0
M  V30 3 Pb -4.6198 -0.0127 1.4433 0
M  V30 4 Pb -3.6667 -1.0503 2.8606 0
M  V30 5 Pb -4.3825 -1.3736 1.6712 0
M  V30 6 Pd 0.3013 -3.4009 4.6690 0
M  V30 7 Pb 1.2790 -3.6121 4.5179 0
M  V30 8 Pb 0.0816 -3.8480 3.8072 0
M  V30 9 Pb -0.6550 -3.1413 4.7986 0
M  V30 10 Pb 0.5902 -2.9104 5.4892 0
M  V30 11 Pd 5.0197 -2.1348 1.4949 0
M  V30 12 Pb 5.2844 -1.6302 0.6742 0
M  V30 13 Pb 4.3948 -2.6709 0.9343 0
M  V30 14 Pb 5.6310 -1.5968 2.0802 0
M  V30 15 Pb 4.6952 -2.6547 2.2986 0
M  V30 16 Pd 0.6309 2.9398 2.1450 0
M  V30 17 Pb 0.7351 3.4389 3.0030 0
M  V30 18 Pb 0.6100 2.3803 1.3169 0
M  V30 19 Pb 1.5781 3.1797 1.9221 0
M  V30 20 Pb -0.3230 2.7449 2.3981 0
M  V30 21 Pd 2.0572 -1.4098 -5.1883 0
M  V30 22 Pb 1.2120 -1.7520 -5.6387 0
M  V30 23 Pb 1.8804 -0.4818 -5.5167 0
M  V30 24 Pb 2.8662 -1.0872 -4.6962 0
M  V30 25 Pb 2.2272 -2.3305 -4.8526 0
M  V30 26 Pd 4.5452 2.1252 4.9584 0
M  V30 27 Pb 4.6870 2.6415 4.1175 0
M  V30 28 Pb 3.8115 2.7618 5.1978 0
M  V30 29 Pb 5.2679 1.4858 4.6861 0
M  V30 30 Pb 4.2741 1.5503 5.7279 0
M  V30 31 Pd -4.9923 3.0126 -2.5718 0
M  V30 32 Pb -4.5870 3.5384 -3.3215 0
M  V30 33 Pb -5.3831 2.3583 -3.2155 0
M  V30 34 Pb -4.4906 3.5873 -1.9308 0
M  V30 35 Pb -5.3909 2.4914 -1.8168 0
M  V30 36 Pd -3.1786 -3.8836 -4.3319 0
M  V30 37 Pb -3.8406 -3.1788 -4.5858 0
M  V30 38 Pb -2.5111 -4.5732 -4.0709 0
M  V30 39 Pb -3.7299 -4.1009 -3.5269 0
M  V30 40 Pb -2.5466 -3.5689 -5.0610 0
M  V30 41 Pd -0.2678 3.3289 -3.3028 0
M  V30 42 Pb 0.1832 2.6835 -2.6908 0
M  V30 43 Pb -0.7356 3.7384 -2.5186 0
M  V30 44 Pb -0.8381 3.8860 -3.9015 0
M  V30 45 Pb 0.1983 2.9461 -4.1027 0
M  V30 46 Ag 5.4072 -1.2906 0.0179 0
M  V30 47 Fe 4.5199 -1.0083 -2.1665 0
M  V30 48 Ag 3.4538 -0.8689 -4.2839 0
M  V30 49 Ag -4.6009 -1.9850 1.2942 0
M  V30 50 Fe -4.4263 -3.1774 -0.7528 0
M  V30 51 Ag -4.0947 -4.1861 -2.8775 0
M  V30 52 Ag 0.9167 -2.5169 6.0354 0
M  V30 53 Fe 2.4380 -0.7222 6.3400 0
M  V30 54 Ag 3.9566 1.0973 6.2314 0
M  V30 55 Ag -5.5960 1.8049 -3.6709 0
M  V30 56 Fe -5.0523 -0.4204 -4.2908 0
M  V30 57 Ag -4.3292 -2.6341 -4.7487 0
M  V30 58 Ag 0.0962 -4.1051 3.1120 0
M  V30 59 Fe 1.7824 -3.8348 1.4854 0
M  V30 60 Ag 3.8461 -3.0719 0.6341 0
M  V30 61 Ag 2.2034 -3.0262 -4.5987 0
M  V30 62 Fe 0.3765 -4.4278 -4.0999 0
M  V30 63 Ag -1.9078 -4.9749 -3.9180 0
M  V30 64 Ba -4.2463 3.9427 -3.8552 0
M  V30 65 Ga -2.8154 4.1433 -4.1454 0
M  V30 66 Ba -1.3542 4.2404 -4.3091 0
M  V30 67 Ba 0.8835 3.7647 3.6598 0
M  V30 68 Ga 2.0403 3.5463 4.5460 0
M  V30 69 Ba 3.2444 3.2333 5.3359 0
M  V30 70 Ba -5.1393 0.3373 1.0241 0
M  V30 71 Ga -5.3456 1.2266 -0.1372 0
M  V30 72 Ba -5.7202 2.1032 -1.2661 0
M  V30 73 Ba 0.6996 1.9468 0.7110 0
M  V30 74 Ga 0.5650 2.0714 -0.7514 0
M  V30 75 Ba 0.4390 2.1645 -2.2170 0
M  V30 76 Ba 2.2917 3.3753 1.7870 0
M  V30 77 Ga 3.5284 3.2171 2.5744 0
M  V30 78 Ba 4.6871 2.9928 3.4581 0
M  V30 79 Ba 1.7563 0.2154 -5.7639 0
M  V30 80 Ga 1.1409 1.4425 -5.2209 0
M  V30 81 Ba 0.5370 2.6950 -4.7252 0
M  V30 82 Ba 2.0218 -3.7644 4.4496 0
M  V30 83 Ga 3.2056 -3.3822 3.6319 0
M  V30 84 Ba 4.4563 -3.0776 2.8839 0
M  V30 85 Ba -3.4501 0.9823 2.7477 0
M  V30 86 Ga -2.2093 1.7854 2.6654 0
M  V30 87 Ba -1.0293 2.6787 2.6595 0
M  V30 88 Ba -4.0213 3.9694 -1.4940 0
M  V30 89 Ga -2.5609 4.0618 -1.6571 0
M  V30 90 Ba -1.1191 4.0561 -1.9568 0
M  V30 91 Ba -3.4823 -1.4382 3.4808 0
M  V30 92 Ga -2.3851 -2.1771 4.1387 0
M  V30 93 Ba -1.3696 -2.9380 4.8961 0
M  V30 94 Ba 0.5916 -2.0200 -6.0008 0
M  V30 95 Ga -0.7302 -2.6664 -5.7374 0
M  V30 96 Ba -2.0711 -3.3135 -5.6035 0
M  V30 97 Ba 6.0848 -1.2140 2.5432 0
M  V30 98 Ga 5.9375 -0.0934 3.4970 0
M  V30 99 Ba 5.8174 1.0250 4.4570 0
M  V30 END ATOM
M  V30 BEGIN BOND
M  V30 1 1 1 2
M  V30 2 1 1 3
M  V30 3 1 1 4
M  V30 4 1 1 5
M  V30 5 1 6 7
M  V30 6 1 6 8
M  V30 7 1 6 9
M  V30 8 1 6 10
M  V30 9 1 11 12
M  V30 10 1 11 13
M  V30 11 1 11 14
M  V30 12 1 11 15
M  V30 13 1 16 17
M  V30 14 1 16 18
M  V30 15 1 16 19
M  V30 16 1 16 20
M  V30 17 1 21 22
M  V30 18 1 21 23
M  V30 19 1 21 24
M  V30 20 1 21 25
M  V30 21 1 26 27
M  V30 22 1 26 28
M  V30 23 1 26 29
M  V30 24 1 26 30
M  V30 25 1 31 32
M  V30 26 1 31 33
M  V30 27 1 31 34
M  V30 28 1 31 35
M  V30 29 1 36 37
M  V30 30 1 36 38
M  V30 31 1 36 39
M  V30 32 1 36 40
M  V30 33 1 41 42
M  V30 34 1 41 43
M  V30 35 1 41 44
M  V30 36 1 41 45
M  V30 37 1 46 47
M  V30 38 1 47 48
M  V30 39 1 49 50
M  V30 40 1 50 51
M  V30 41 1 52 53
M  V30 42 1 53 54
M  V30 43 1 55 56
M  V30 44 1 56 57
M  V30 45 1 58 59
M  V30 46 1 59 60
M  V30 47 1 61 62
M  V30 48 1 62 63
M  V30 49 1 64 65
M  V30 50 1 65 66
M  V30 51 1 67 68
M  V30 52 1 68 69
M  V30 53 1 70 71
M  V30 54 1 71 72
M  V30 55 1 73 74
M  V30 56 1 74 75
M  V30 57 1 76 77
M  V30 58 1 77 78
M  V30 59 1 79 80
M  V30 60 1 80 81
M  V30 61 1 82 83
M  V30 62 1 83 84
M  V30 63 1 85 86
M  V30 64 1 86 87
M  V30 65 1 88 89
M  V30 66 1 89 90
M  V30 67 1 91 92
M  V30 68 1 92 93
M  V30 69 1 94 95
M  V30 70 1 95 96
M  V30 71 1 97 98
M  V30 72 1 98 99
M  V30 73 1 2 85
M  V30 74 1 3 70
M  V30 75 1 4 91
M  V30 76 1 5 49
M  V30 77 1 7 82
M  V30 78 1 8 58
M  V30 79 1 9 93
M  V30 80 1 10 52
M  V30 81 1 12 46
M  V30 82 1 13 60
M  V30 83 1 14 97
M  V30 84 1 15 84
M  V30 85 1 17 67
M  V30 86 1 18 73
M  V30 87 1 19 76
M  V30 88 1 20 87
M  V30 89 1 22 94
M  V30 90 1 23 79
M  V30 91 1 24 48
M  V30 92 1 25 61
M  V30 93 1 27 78
M  V30 94 1 28 69
M  V30 95 1 29 99
M  V30 96 1 30 54
M  V30 97 1 32 64
M  V30 98 1 33 55
M  V30 99 1 34 88
M  V30 100 1 35 72
M  V30 101 1 37 57
M  V30 102 1 38 63
M  V30 103 1 39 51
M  V30 104 1 40 96
M  V30 105 1 42 75
M  V30 106 1 43 90
M  V30 107 1 44 66
M  V30 108 1 45 81
M  V30 END BOND
M  V30 END CTAB
M  END

$$$$
