
     RDKit          3D

  0  0  0  0  0  0  0  0  0  0999 V3000
M  V30 BEGIN CTAB
M  V30 COUNTS 99 108 0 0 0
M  V30 BEGIN ATOM
M  V30 1 Pd 6.2784 0.4390 2.4938 0
M  V30 2 Pb 6.8529 0.8212 1.7752 0
M  V30 3 Pb 6.1778 1.3686 2.8233 0
M  V30 4 Pb 5.5954 0.1228 3.1783 0
M  V30 5 Pb 6.4140 -0.4963 2.1579 0
M  V30 6 Pd -4.4416 -3.9529 2.8131 0
M  V30 7 Pb -5.2271 -4.0387 2.2030 0
M  V30 8 Pb -4.8103 -3.0851 3.1398 0
M  V30 9 Pb -3.6455 -3.7976 3.3960 0
M  V30 10 Pb -4.0548 -4.8054 2.4578 0
M  V30 11 Pd -0.5800 4.5287 -2.8017 0
M  V30 12 Pb 0.2542 5.0151 -2.5276 0
M  V30 13 Pb -1.0516 4.8881 -1.9873 0
M  V30 14 Pb -0.1015 4.2067 -3.6172 0
M  V30 15 Pb -1.3841 4.0473 -3.1576 0
M  V30 16 Pd 4.4910 3.5220 -3.7940 0
M  V30 17 Pb 4.0877 4.3298 -3.3593 0
M  V30 18 Pb 5.2834 3.5268 -3.1876 0
M  V30 19 Pb 3.6986 3.4687 -4.3975 0
M  V30 20 Pb 4.8430 2.6507 -4.1284 0
M  V30 21 Pd -0.8391 -5.3715 -1.1391 0
M  V30 22 Pb -0.2486 -4.9434 -1.8189 0
M  V30 23 Pb -1.5917 -5.2772 -1.7920 0
M  V30 24 Pb -0.0636 -5.4323 -0.5060 0
M  V30 25 Pb -1.4328 -5.8163 -0.4647 0
M  V30 26 Pd -6.2859 -0.7699 -3.3859 0
M  V30 27 Pb -5.8337 -1.5819 -3.7513 0
M  V30 28 Pb -6.6531 0.0394 -2.9374 0
M  V30 29 Pb -6.7904 -1.3848 -2.7836 0
M  V30 30 Pb -5.7194 -0.1344 -3.9083 0
M  V30 31 Pd 0.8542 1.3347 4.8970 0
M  V30 32 Pb 0.0229 1.8916 4.9498 0
M  V30 33 Pb 1.3589 2.1882 4.8970 0
M  V30 34 Pb 1.7267 0.8085 4.8389 0
M  V30 35 Pb 0.3608 0.4641 4.9433 0
M  V30 36 Pd 4.1868 -3.3649 -1.1640 0
M  V30 37 Pb 4.6709 -2.8069 -1.8376 0
M  V30 38 Pb 4.9220 -3.2495 -0.4923 0
M  V30 39 Pb 3.6696 -3.9302 -0.5169 0
M  V30 40 Pb 3.4604 -3.4748 -1.8381 0
M  V30 41 Pd -3.7110 3.5442 2.0292 0
M  V30 42 Pb -3.2141 4.2519 1.5182 0
M  V30 43 Pb -4.2101 2.8283 2.5140 0
M  V30 44 Pb -3.1039 3.6043 2.8245 0
M  V30 45 Pb -4.3914 3.4895 1.3012 0
M  V30 46 Ag -5.7992 -4.0256 1.7212 0
M  V30 47 Fe -6.5753 -3.0250 -0.2845 0
M  V30 48 Ag -7.0784 -1.8722 -2.2956 0
M  V30 49 Ag 5.9985 2.0360 3.0826 0
M  V30 50 Fe 4.0366 2.8881 4.0585 0
M  V30 51 Ag 1.8309 2.7540 4.8604 0
M  V30 52 Ag -2.1166 -5.1584 -2.3157 0
M  V30 53 Fe -3.8135 -3.7418 -3.1847 0
M  V30 54 Ag -5.4837 -2.2221 -3.9205 0
M  V30 55 Ag -6.8106 0.6743 -2.5802 0
M  V30 56 Fe -5.9617 2.1170 -0.9009 0
M  V30 57 Ag -4.9423 3.4169 0.8002 0
M  V30 58 Ag -1.9154 3.6715 -3.5370 0
M  V30 59 Fe -3.6051 2.0310 -3.8596 0
M  V30 60 Ag -5.3046 0.4081 -4.2172 0
M  V30 61 Ag -5.0585 -2.4162 3.3640 0
M  V30 62 Fe -4.8624 -0.0608 3.1561 0
M  V30 63 Ag -4.5749 2.2760 2.8629 0
M  V30 64 Ag 7.1819 1.2048 1.2259 0
M  V30 65 Fe 6.6742 2.3572 -0.7836 0
M  V30 66 Ag 5.8797 3.4216 -2.7484 0
M  V30 67 Ag 5.1110 1.9655 -4.2612 0
M  V30 68 Fe 5.1087 -0.2466 -3.4011 0
M  V30 69 Ag 4.9719 -2.3847 -2.3794 0
M  V30 70 Ag -3.0615 -3.6110 3.8266 0
M  V30 71 Fe -1.5046 -1.9149 4.4129 0
M  V30 72 Ag 0.0514 -0.2189 5.0021 0
M  V30 73 Ba 5.0793 -0.1187 3.6922 0
M  V30 74 Ga 3.7117 0.1976 4.2137 0
M  V30 75 Ba 2.3648 0.3779 4.8421 0
M  V30 76 Ba 6.5464 -1.1992 1.9225 0
M  V30 77 Ga 5.9840 -2.1668 0.9564 0
M  V30 78 Ba 5.4765 -3.1850 0.0122 0
M  V30 79 Ba 0.1868 -4.6279 -2.3374 0
M  V30 80 Ga 1.5543 -4.0866 -2.3485 0
M  V30 81 Ba 2.9226 -3.5473 -2.3516 0
M  V30 82 Ba -1.3491 5.2265 -1.3786 0
M  V30 83 Ga -2.1148 4.9475 -0.1405 0
M  V30 84 Ba -2.8728 4.7976 1.1247 0
M  V30 85 Ba 0.2564 3.9747 -4.2327 0
M  V30 86 Ga 1.6661 3.6953 -4.5523 0
M  V30 87 Ba 3.0876 3.4276 -4.8260 0
M  V30 88 Ba 0.5255 -5.4647 -0.0380 0
M  V30 89 Ga 1.8973 -4.9114 -0.0413 0
M  V30 90 Ba 3.2693 -4.3583 -0.0442 0
M  V30 91 Ba 0.8920 5.3845 -2.3693 0
M  V30 92 Ga 2.3212 5.1560 -2.6780 0
M  V30 93 Ba 3.7409 4.8952 -3.0038 0
M  V30 94 Ba -3.7700 -5.4421 2.1790 0
M  V30 95 Ga -2.8138 -5.7893 1.1073 0
M  V30 96 Ba -1.8621 -6.1692 0.0428 0
M  V30 97 Ba -0.5370 2.3905 5.0101 0
M  V30 98 Ga -1.6242 2.9737 4.1956 0
M  V30 99 Ba -2.7394 3.6320 3.4825 0
M  V30 END ATOM
M  V30 BEGIN BOND
M  V30 1 1 1 2
M  V30 2 1 1 3
M  V30 3 1 1 4
M  V30 4 1 1 5
M  V30 5 1 6 7
M  V30 6 1 6 8
M  V30 7 1 6 9
M  V30 8 1 6 10
M  V30 9 1 11 12
M  V30 10 1 11 13
M  V30 11 1 11 14
M  V30 12 1 11 15
M  V30 13 1 16 17
M  V30 14 1 16 18
M  V30 15 1 16 19
M  V30 16 1 16 20
M  V30 17 1 21 22
M  V30 18 1 21 23
M  V30 19 1 21 24
M  V30 20 1 21 25
M  V30 21 1 26 27
M  V30 22 1 26 28
M  V30 23 1 26 29
M  V30 24 1 26 30
M  V30 25 1 31 32
M  V30 26 1 31 33
M  V30 27 1 31 34
M  V30 28 1 31 35
M  V30 29 1 36 37
M  V30 30 1 36 38
M  V30 31 1 36 39
M  V30 32 1 36 40
M  V30 33 1 41 42
M  V30 34 1 41 43
M  V30 35 1 41 44
M  V30 36 1 41 45
M  V30 37 1 46 47
M  V30 38 1 47 48
M  V30 39 1 49 50
M  V30 40 1 50 51
M  V30 41 1 52 53
M  V30 42 1 53 54
M  V30 43 1 55 56
M  V30 44 1 56 57
M  V30 45 1 58 59
M  V30 46 1 59 60
M  V30 47 1 61 62
M  V30 48 1 62 63
M  V30 49 1 64 65
M  V30 50 1 65 66
M  V30 51 1 67 68
M  V30 52 1 68 69
M  V30 53 1 70 71
M  V30 54 1 71 72
M  V30 55 1 73 74
M  V30 56 1 74 75
M  V30 57 1 76 77
M  V30 58 1 77 78
M  V30 59 1 79 80
M  V30 60 1 80 81
M  V30 61 1 82 83
M  V30 62 1 83 84
M  V30 63 1 85 86
M  V30 64 1 86 87
M  V30 65 1 88 89
M  V30 66 1 89 90
M  V30 67 1 91 92
M  V30 68 1 92 93
M  V30 69 1 94 95
M  V30 70 1 95 96
M  V30 71 1 97 98
M  V30 72 1 98 99
M  V30 73 1 2 64
M  V30 74 1 3 49
M  V30 75 1 4 73
M  V30 76 1 5 76
M  V30 77 1 7 46
M  V30 78 1 8 61
M  V30 79 1 9 70
M  V30 80 1 10 94
M  V30 81 1 12 91
M  V30 82 1 13 82
M  V30 83 1 14 85
M  V30 84 1 15 58
M  V30 85 1 17 93
M  V30 86 1 18 66
M  V30 87 1 19 87
M  V30 88 1 20 67
M  V30 89 1 22 79
M  V30 90 1 23 52
M  V30 91 1 24 88
M  V30 92 1 25 96
M  V30 93 1 27 54
M  V30 94 1 28 55
M  V30 95 1 29 48
M  V30 96 1 30 60
M  V30 97 1 32 97
M  V30 98 1 33 51
M  V30 99 1 34 75
M  V30 100 1 35 72
M  V30 101 1 37 69
M  V30 102 1 38 78
M  V30 103 1 39 90
M  V30 104 1 40 81
M  V30 105 1 42 84
M  V30 106 1 43 63
M  V30 107 1 44 99
M  V30 108 1 45 57
M  V30 END BOND
M  V30 END CTAB
M  END

$$$$
