
     RDKit          3D

  0  0  0  0  0  0  0  0  0  0999 V3000
M  V30 BEGIN CTAB
M  V30 COUNTS 99 108 0 0 0
M  V30 BEGIN ATOM
M  V30 1 Pd -3.0529 -2.3184 -1.6149 0
M  V30 2 Pb -2.4938 -3.1143 -1.3856 0
M  V30 3 Pb -3.8658 -2.8979 -1.5217 0
M  V30 4 Pb -2.2263 -1.7606 -1.6655 0
M  V30 5 Pb -3.5836 -1.5227 -1.9180 0
M  V30 6 Pd 1.4261 3.4261 -4.5876 0
M  V30 7 Pb 1.6737 4.1673 -5.2089 0
M  V30 8 Pb 1.3882 4.0893 -3.8277 0
M  V30 9 Pb 1.2184 2.6865 -3.9496 0
M  V30 10 Pb 1.6918 2.7475 -5.2691 0
M  V30 11 Pd 5.4412 4.9542 -1.7126 0
M  V30 12 Pb 5.2959 4.2285 -1.0371 0
M  V30 13 Pb 4.4893 5.2621 -1.5843 0
M  V30 14 Pb 6.2793 4.5156 -2.0302 0
M  V30 15 Pb 5.5610 5.6602 -2.4083 0
M  V30 16 Pd 2.0553 -3.4878 0.3441 0
M  V30 17 Pb 2.8522 -3.0755 0.7629 0
M  V30 18 Pb 1.9007 -3.9922 1.1910 0
M  V30 19 Pb 2.2264 -2.9792 -0.5255 0
M  V30 20 Pb 1.2528 -3.9382 -0.0473 0
M  V30 21 Pd 0.4107 1.7094 3.0052 0
M  V30 22 Pb 0.1859 2.2528 2.1969 0
M  V30 23 Pb 0.6382 1.1410 3.8011 0
M  V30 24 Pb 1.3459 1.6180 2.6597 0
M  V30 25 Pb -0.5185 1.8702 3.3461 0
M  V30 26 Pd 5.1308 0.3560 -3.3887 0
M  V30 27 Pb 4.3863 -0.2988 -3.1416 0
M  V30 28 Pb 5.5527 0.2395 -2.5005 0
M  V30 29 Pb 5.8750 1.0009 -3.5789 0
M  V30 30 Pb 4.6912 0.4831 -4.2837 0
M  V30 31 Pd -6.3515 -3.8411 2.4996 0
M  V30 32 Pb -6.5157 -3.4904 3.4139 0
M  V30 33 Pb -7.0026 -3.1667 2.1685 0
M  V30 34 Pb -5.5702 -4.3830 2.8589 0
M  V30 35 Pb -6.1909 -4.1325 1.5534 0
M  V30 36 Pd -4.1206 2.3830 0.4536 0
M  V30 37 Pb -5.0281 2.0195 0.6498 0
M  V30 38 Pb -3.9309 2.5214 1.4266 0
M  V30 39 Pb -4.2774 2.1124 -0.4944 0
M  V30 40 Pb -3.2117 2.7397 0.2431 0
M  V30 41 Pd -1.0851 -3.1658 5.0168 0
M  V30 42 Pb -0.3845 -3.7042 4.5490 0
M  V30 43 Pb -1.7993 -3.8214 4.6976 0
M  V30 44 Pb -1.7658 -2.6940 5.5642 0
M  V30 45 Pb -0.4070 -2.4770 5.2827 0
M  V30 46 Ag -6.4940 -3.1760 4.0822 0
M  V30 47 Fe -4.6557 -2.5714 5.4194 0
M  V30 48 Ag -2.3608 -2.4349 5.9183 0
M  V30 49 Ag 3.4655 -2.7305 0.9827 0
M  V30 50 Fe 4.9442 -1.2382 -0.0727 0
M  V30 51 Ag 5.7834 0.0992 -1.8146 0
M  V30 52 Ag 5.1614 3.6802 -0.5403 0
M  V30 53 Fe 3.6354 2.6086 0.9337 0
M  V30 54 Ag 2.0444 1.6007 2.3838 0
M  V30 55 Ag -7.3600 -2.5521 1.9513 0
M  V30 56 Fe -6.7389 -0.3565 1.3182 0
M  V30 57 Ag -5.6910 1.6901 0.7493 0
M  V30 58 Ag 2.0004 4.7504 -5.5323 0
M  V30 59 Fe 3.8761 5.9038 -4.7011 0
M  V30 60 Ag 5.4983 6.0962 -3.0063 0
M  V30 61 Ag -1.6018 -1.3482 -1.6806 0
M  V30 62 Fe -0.2789 0.3974 -2.5945 0
M  V30 63 Ag 1.0890 2.1301 -3.4658 0
M  V30 64 Ba -4.4366 -3.3806 -1.4313 0
M  V30 65 Ga -5.2694 -3.8359 -0.2966 0
M  V30 66 Ba -6.1127 -4.3054 0.8245 0
M  V30 67 Ba 1.7966 -4.3766 1.8237 0
M  V30 68 Ga 0.9533 -4.2363 3.0238 0
M  V30 69 Ba 0.1367 -4.1508 4.2471 0
M  V30 70 Ba -3.9273 -0.9082 -2.1868 0
M  V30 71 Ga -4.1837 0.4620 -1.6979 0
M  V30 72 Ba -4.4231 1.8199 -1.1683 0
M  V30 73 Ba 2.3017 -2.6305 -1.2088 0
M  V30 74 Ga 3.1264 -1.6848 -2.0289 0
M  V30 75 Ba 3.7958 -0.7786 -3.0177 0
M  V30 76 Ba 2.0129 2.2334 -5.7087 0
M  V30 77 Ga 3.1638 1.3676 -5.3739 0
M  V30 78 Ba 4.3164 0.5513 -4.9360 0
M  V30 79 Ba 1.4444 4.5710 -3.2415 0
M  V30 80 Ga 2.5842 5.0199 -2.3922 0
M  V30 81 Ba 3.7510 5.4427 -1.5667 0
M  V30 82 Ba 0.8303 0.7110 4.3900 0
M  V30 83 Ga 0.4491 -0.6147 4.9252 0
M  V30 84 Ba 0.0811 -1.9378 5.4760 0
M  V30 85 Ba -2.0739 -3.7211 -1.2551 0
M  V30 86 Ga -0.7061 -3.9913 -0.7746 0
M  V30 87 Ba 0.6532 -4.3113 -0.3005 0
M  V30 88 Ba -4.9718 -4.7643 3.1504 0
M  V30 89 Ga -3.6494 -4.4861 3.7975 0
M  V30 90 Ba -2.3104 -4.3434 4.4538 0
M  V30 91 Ba -1.2132 2.0437 3.5787 0
M  V30 92 Ga -2.4928 2.3072 2.8868 0
M  V30 93 Ba -3.7520 2.5613 2.1553 0
M  V30 94 Ba 0.0080 2.6450 1.5833 0
M  V30 95 Ga -1.2453 2.8402 0.8328 0
M  V30 96 Ba -2.5229 3.0048 0.1168 0
M  V30 97 Ba 6.8180 4.1303 -2.3800 0
M  V30 98 Ga 6.7024 2.8029 -3.0184 0
M  V30 99 Ba 6.4615 1.4727 -3.6154 0
M  V30 END ATOM
M  V30 BEGIN BOND
M  V30 1 1 1 2
M  V30 2 1 1 3
M  V30 3 1 1 4
M  V30 4 1 1 5
M  V30 5 1 6 7
M  V30 6 1 6 8
M  V30 7 1 6 9
M  V30 8 1 6 10
M  V30 9 1 11 12
M  V30 10 1 11 13
M  V30 11 1 11 14
M  V30 12 1 11 15
M  V30 13 1 16 17
M  V30 14 1 16 18
M  V30 15 1 16 19
M  V30 16 1 16 20
M  V30 17 1 21 22
M  V30 18 1 21 23
M  V30 19 1 21 24
M  V30 20 1 21 25
M  V30 21 1 26 27
M  V30 22 1 26 28
M  V30 23 1 26 29
M  V30 24 1 26 30
M  V30 25 1 31 32
M  V30 26 1 31 33
M  V30 27 1 31 34
M  V30 28 1 31 35
M  V30 29 1 36 37
M  V30 30 1 36 38
M  V30 31 1 36 39
M  V30 32 1 36 40
M  V30 33 1 41 42
M  V30 34 1 41 43
M  V30 35 1 41 44
M  V30 36 1 41 45
M  V30 37 1 46 47
M  V30 38 1 47 48
M  V30 39 1 49 50
M  V30 40 1 50 51
M  V30 41 1 52 53
M  V30 42 1 53 54
M  V30 43 1 55 56
M  V30 44 1 56 57
M  V30 45 1 58 59
M  V30 46 1 59 60
M  V30 47 1 61 62
M  V30 48 1 62 63
M  V30 49 1 64 65
M  V30 50 1 65 66
M  V30 51 1 67 68
M  V30 52 1 68 69
M  V30 53 1 70 71
M  V30 54 1 71 72
M  V30 55 1 73 74
M  V30 56 1 74 75
M  V30 57 1 76 77
M  V30 58 1 77 78
M  V30 59 1 79 80
M  V30 60 1 80 81
M  V30 61 1 82 83
M  V30 62 1 83 84
M  V30 63 1 85 86
M  V30 64 1 86 87
M  V30 65 1 88 89
M  V30 66 1 89 90
M  V30 67 1 91 92
M  V30 68 1 92 93
M  V30 69 1 94 95
M  V30 70 1 95 96
M  V30 71 1 97 98
M  V30 72 1 98 99
M  V30 73 1 2 85
M  V30 74 1 3 64
M  V30 75 1 4 61
M  V30 76 1 5 70
M  V30 77 1 7 58
M  V30 78 1 8 79
M  V30 79 1 9 63
M  V30 80 1 10 76
M  V30 81 1 12 52
M  V30 82 1 13 81
M  V30 83 1 14 97
M  V30 84 1 15 60
M  V30 85 1 17 49
M  V30 86 1 18 67
M  V30 87 1 19 73
M  V30 88 1 20 87
M  V30 89 1 22 94
M  V30 90 1 23 82
M  V30 91 1 24 54
M  V30 92 1 25 91
M  V30 93 1 27 75
M  V30 94 1 28 51
M  V30 95 1 29 99
M  V30 96 1 30 78
M  V30 97 1 32 46
M  V30 98 1 33 55
M  V30 99 1 34 88
M  V30 100 1 35 66
M  V30 101 1 37 57
M  V30 102 1 38 93
M  V30 103 1 39 72
M  V30 104 1 40 96
M  V30 105 1 42 69
M  V30 106 1 43 90
M  V30 107 1 44 48
M  V30 108 1 45 84
M  V30 END BOND
M  V30 END CTAB
M  END

$$$$
