
     RDKit          3D

  0  0  0  0  0  0  0  0  0  0999 V3000
M  V30 BEGIN CTAB
M  V30 COUNTS 99 108 0 0 0
M  V30 BEGIN ATOM
M  V30 1 Pd -2.5062 -2.1200 -6.2817 0
M  V30 2 Pb -1.5621 -2.1739 -5.9646 0
M  V30 3 Pb -2.1909 -2.0263 -7.2258 0
M  V30 4 Pb -3.4391 -1.9662 -6.6062 0
M  V30 5 Pb -2.8247 -2.1709 -5.3327 0
M  V30 6 Pd -3.4742 1.8228 -8.8939 0
M  V30 7 Pb -2.7168 2.4563 -9.0528 0
M  V30 8 Pb -4.1963 1.1673 -8.6704 0
M  V30 9 Pb -2.9620 1.0760 -9.3142 0
M  V30 10 Pb -3.9475 2.5470 -8.3954 0
M  V30 11 Pd 1.1945 2.6998 3.9239 0
M  V30 12 Pb 2.1568 2.5880 3.6840 0
M  V30 13 Pb 0.2136 2.7464 4.1058 0
M  V30 14 Pb 1.3634 2.3521 4.8500 0
M  V30 15 Pb 1.0395 3.1247 3.0319 0
M  V30 16 Pd 3.1018 -2.7444 9.0464 0
M  V30 17 Pb 3.2947 -3.7168 8.9478 0
M  V30 18 Pb 3.9967 -2.5583 8.6511 0
M  V30 19 Pb 2.1592 -2.9760 9.2818 0
M  V30 20 Pb 2.8670 -1.7736 8.9960 0
M  V30 21 Pd 1.5853 1.7644 -1.6369 0
M  V30 22 Pb 1.3097 1.0667 -0.9775 0
M  V30 23 Pb 1.8245 2.4546 -2.3208 0
M  V30 24 Pb 1.3691 2.4911 -0.9860 0
M  V30 25 Pb 1.7467 1.0311 -2.2938 0
M  V30 26 Pd -1.2719 4.5848 -5.3065 0
M  V30 27 Pb -0.9994 4.5667 -6.2690 0
M  V30 28 Pb -1.5691 4.5699 -4.3520 0
M  V30 29 Pb -2.2262 4.6346 -5.6035 0
M  V30 30 Pb -0.3130 4.5340 -5.0202 0
M  V30 31 Pd 3.6720 -1.6666 2.3839 0
M  V30 32 Pb 2.8549 -1.4503 1.8501 0
M  V30 33 Pb 3.3958 -2.6320 2.3870 0
M  V30 34 Pb 3.9421 -0.7035 2.4132 0
M  V30 35 Pb 4.4315 -1.8528 3.0027 0
M  V30 36 Pd -2.8906 0.5448 1.1927 0
M  V30 37 Pb -2.9064 -0.2822 1.7547 0
M  V30 38 Pb -2.7749 1.1060 2.0158 0
M  V30 39 Pb -3.0561 -0.0293 0.3860 0
M  V30 40 Pb -2.8591 1.3773 0.6383 0
M  V30 41 Pd 0.6678 -4.9054 5.6074 0
M  V30 42 Pb 0.2388 -4.7172 6.4937 0
M  V30 43 Pb 1.4148 -5.3532 6.1001 0
M  V30 44 Pb 1.1445 -5.0354 4.7347 0
M  V30 45 Pb -0.1088 -4.4839 5.1378 0
M  V30 46 Ag 1.4928 2.1406 5.5617 0
M  V30 47 Fe 2.0821 0.5524 7.2300 0
M  V30 48 Ag 2.6736 -1.0587 8.8754 0
M  V30 49 Ag -2.9167 -0.9086 2.1671 0
M  V30 50 Fe -1.7901 -2.5335 3.4835 0
M  V30 51 Ag -0.7136 -4.1864 4.8071 0
M  V30 52 Ag -3.0611 -2.1990 -4.6190 0
M  V30 53 Fe -3.1045 -1.3077 -2.4142 0
M  V30 54 Ag -3.2169 -0.5011 -0.1796 0
M  V30 55 Ag -1.8123 4.5426 -3.6433 0
M  V30 56 Fe -2.3132 3.2700 -1.7012 0
M  V30 57 Ag -2.8230 2.0211 0.2539 0
M  V30 58 Ag -0.8604 -2.1324 -5.7112 0
M  V30 59 Fe 0.5760 -0.9107 -4.2731 0
M  V30 60 Ag 1.7992 0.4596 -2.7727 0
M  V30 61 Ag 4.5957 -2.4708 8.2166 0
M  V30 62 Fe 5.0227 -2.1986 5.9024 0
M  V30 63 Ag 4.9331 -1.9338 3.5498 0
M  V30 64 Ba -4.2462 3.0909 -7.9767 0
M  V30 65 Ga -3.6342 3.9018 -6.9082 0
M  V30 66 Ba -2.9327 4.6600 -5.8561 0
M  V30 67 Ba -1.9857 -1.9062 -7.9368 0
M  V30 68 Ga -2.2442 -0.7457 -8.8068 0
M  V30 69 Ba -2.5798 0.4789 -9.5536 0
M  V30 70 Ba 3.1754 -3.3532 2.3797 0
M  V30 71 Ga 2.3474 -4.2282 3.2394 0
M  V30 72 Ba 1.5222 -5.1163 4.0883 0
M  V30 73 Ba 1.4464 -3.1977 9.3455 0
M  V30 74 Ga 0.6405 -3.8768 8.3116 0
M  V30 75 Ba -0.0262 -4.5465 7.1770 0
M  V30 76 Ba -4.1093 -1.7771 -6.8836 0
M  V30 77 Ga -4.4726 -0.5914 -7.6822 0
M  V30 78 Ba -4.6879 0.6367 -8.4703 0
M  V30 79 Ba 1.9869 2.9757 -2.8361 0
M  V30 80 Ga 1.1956 3.7362 -3.8242 0
M  V30 81 Ba 0.4092 4.4996 -4.8141 0
M  V30 82 Ba -2.1430 2.9355 -9.1130 0
M  V30 83 Ga -1.4584 3.7514 -8.0920 0
M  V30 84 Ba -0.8390 4.5279 -7.0011 0
M  V30 85 Ba 2.8577 2.4679 3.4513 0
M  V30 86 Ga 3.5322 1.2516 2.9622 0
M  V30 87 Ba 4.1649 0.0104 2.4796 0
M  V30 88 Ba 1.0806 0.5200 -0.5199 0
M  V30 89 Ga 1.6790 -0.3742 0.4878 0
M  V30 90 Ba 2.2060 -1.3019 1.5050 0
M  V30 91 Ba 0.9328 3.4911 2.3860 0
M  V30 92 Ga 1.0667 3.2354 0.9399 0
M  V30 93 Ba 1.1792 3.0447 -0.5180 0
M  V30 94 Ba 3.3946 -4.4317 8.7588 0
M  V30 95 Ga 2.7158 -5.1306 7.6553 0
M  V30 96 Ba 1.9479 -5.6717 6.5216 0
M  V30 97 Ba -0.5296 2.7506 4.1986 0
M  V30 98 Ga -1.6280 2.1420 3.4222 0
M  V30 99 Ba -2.7170 1.5280 2.6367 0
M  V30 END ATOM
M  V30 BEGIN BOND
M  V30 1 1 1 2
M  V30 2 1 1 3
M  V30 3 1 1 4
M  V30 4 1 1 5
M  V30 5 1 6 7
M  V30 6 1 6 8
M  V30 7 1 6 9
M  V30 8 1 6 10
M  V30 9 1 11 12
M  V30 10 1 11 13
M  V30 11 1 11 14
M  V30 12 1 11 15
M  V30 13 1 16 17
M  V30 14 1 16 18
M  V30 15 1 16 19
M  V30 16 1 16 20
M  V30 17 1 21 22
M  V30 18 1 21 23
M  V30 19 1 21 24
M  V30 20 1 21 25
M  V30 21 1 26 27
M  V30 22 1 26 28
M  V30 23 1 26 29
M  V30 24 1 26 30
M  V30 25 1 31 32
M  V30 26 1 31 33
M  V30 27 1 31 34
M  V30 28 1 31 35
M  V30 29 1 36 37
M  V30 30 1 36 38
M  V30 31 1 36 39
M  V30 32 1 36 40
M  V30 33 1 41 42
M  V30 34 1 41 43
M  V30 35 1 41 44
M  V30 36 1 41 45
M  V30 37 1 46 47
M  V30 38 1 47 48
M  V30 39 1 49 50
M  V30 40 1 50 51
M  V30 41 1 52 53
M  V30 42 1 53 54
M  V30 43 1 55 56
M  V30 44 1 56 57
M  V30 45 1 58 59
M  V30 46 1 59 60
M  V30 47 1 61 62
M  V30 48 1 62 63
M  V30 49 1 64 65
M  V30 50 1 65 66
M  V30 51 1 67 68
M  V30 52 1 68 69
M  V30 53 1 70 71
M  V30 54 1 71 72
M  V30 55 1 73 74
M  V30 56 1 74 75
M  V30 57 1 76 77
M  V30 58 1 77 78
M  V30 59 1 79 80
M  V30 60 1 80 81
M  V30 61 1 82 83
M  V30 62 1 83 84
M  V30 63 1 85 86
M  V30 64 1 86 87
M  V30 65 1 88 89
M  V30 66 1 89 90
M  V30 67 1 91 92
M  V30 68 1 92 93
M  V30 69 1 94 95
M  V30 70 1 95 96
M  V30 71 1 97 98
M  V30 72 1 98 99
M  V30 73 1 2 58
M  V30 74 1 3 67
M  V30 75 1 4 76
M  V30 76 1 5 52
M  V30 77 1 7 82
M  V30 78 1 8 78
M  V30 79 1 9 69
M  V30 80 1 10 64
M  V30 81 1 12 85
M  V30 82 1 13 97
M  V30 83 1 14 46
M  V30 84 1 15 91
M  V30 85 1 17 94
M  V30 86 1 18 61
M  V30 87 1 19 73
M  V30 88 1 20 48
M  V30 89 1 22 88
M  V30 90 1 23 79
M  V30 91 1 24 93
M  V30 92 1 25 60
M  V30 93 1 27 84
M  V30 94 1 28 55
M  V30 95 1 29 66
M  V30 96 1 30 81
M  V30 97 1 32 90
M  V30 98 1 33 70
M  V30 99 1 34 87
M  V30 100 1 35 63
M  V30 101 1 37 49
M  V30 102 1 38 99
M  V30 103 1 39 54
M  V30 104 1 40 57
M  V30 105 1 42 75
M  V30 106 1 43 96
M  V30 107 1 44 72
M  V30 108 1 45 51
M  V30 END BOND
M  V30 END CTAB
M  END

$$$$
