
     RDKit          3D

  0  0  0  0  0  0  0  0  0  0999 V3000
M  V30 BEGIN CTAB
M  V30 COUNTS 99 108 0 0 0
M  V30 BEGIN ATOM
M  V30 1 Pd -4.4936 0.9449 1.1404 0
M  V30 2 Pb -5.3731 0.7206 0.7217 0
M  V30 3 Pb -3.5748 1.1372 1.4907 0
M  V30 4 Pb -4.6813 1.9289 1.1495 0
M  V30 5 Pb -4.3159 -0.0367 1.1374 0
M  V30 6 Pd 4.2989 0.5938 4.1073 0
M  V30 7 Pb 3.8286 0.4458 3.2345 0
M  V30 8 Pb 3.8638 1.5023 4.1608 0
M  V30 9 Pb 4.5762 -0.3640 4.1186 0
M  V30 10 Pb 4.6119 0.7144 5.0482 0
M  V30 11 Pd 1.0496 -3.2575 -5.5191 0
M  V30 12 Pb 0.3568 -2.7676 -6.0342 0
M  V30 13 Pb 1.7761 -3.7335 -5.0172 0
M  V30 14 Pb 1.7274 -2.6121 -5.8608 0
M  V30 15 Pb 0.2887 -3.7554 -5.0853 0
M  V30 16 Pd 3.4764 2.8173 -2.4142 0
M  V30 17 Pb 3.4801 2.3819 -3.3133 0
M  V30 18 Pb 3.5002 3.2374 -1.5143 0
M  V30 19 Pb 4.2177 2.1929 -2.1647 0
M  V30 20 Pb 2.6844 3.4122 -2.6568 0
M  V30 21 Pd 3.5161 -2.3821 -0.9412 0
M  V30 22 Pb 3.1595 -1.7408 -0.2599 0
M  V30 23 Pb 3.8034 -2.9934 -1.6776 0
M  V30 24 Pb 4.2122 -1.6954 -1.1628 0
M  V30 25 Pb 2.8556 -3.1049 -0.7239 0
M  V30 26 Pd -1.9594 5.0368 -1.0373 0
M  V30 27 Pb -1.3274 5.2279 -0.2951 0
M  V30 28 Pb -2.6166 4.8359 -1.7625 0
M  V30 29 Pb -2.7325 5.0267 -0.4022 0
M  V30 30 Pb -1.1697 4.9869 -1.6807 0
M  V30 31 Pd -5.4144 -0.7292 -3.7863 0
M  V30 32 Pb -5.9593 -0.7147 -2.9442 0
M  V30 33 Pb -5.5988 0.2429 -3.9065 0
M  V30 34 Pb -5.0523 -1.6598 -3.6505 0
M  V30 35 Pb -4.8887 -0.7120 -4.6281 0
M  V30 36 Pd 0.0493 -4.8098 2.8325 0
M  V30 37 Pb 0.4204 -5.0420 1.9366 0
M  V30 38 Pb -0.3467 -4.4651 3.6837 0
M  V30 39 Pb 0.9756 -4.8081 3.2052 0
M  V30 40 Pb -0.8528 -4.7082 2.4258 0
M  V30 41 Pd -0.5537 1.7364 5.6082 0
M  V30 42 Pb 0.1420 2.4052 5.3213 0
M  V30 43 Pb -0.8539 1.6898 4.6521 0
M  V30 44 Pb -1.0790 0.9221 5.8482 0
M  V30 45 Pb -0.1546 1.7586 6.5242 0
M  V30 46 Ag 3.3879 3.5819 -0.8690 0
M  V30 47 Fe 1.4813 4.5953 0.0730 0
M  V30 48 Ag -0.7642 5.2992 0.1795 0
M  V30 49 Ag -0.3561 -3.9999 -4.7674 0
M  V30 50 Fe -2.5433 -3.2782 -4.1395 0
M  V30 51 Ag -4.6600 -2.3088 -3.6110 0
M  V30 52 Ag 4.5965 0.8331 5.7822 0
M  V30 53 Fe 2.6461 1.3404 7.0095 0
M  V30 54 Ag 0.3229 1.7476 7.0960 0
M  V30 55 Ag -0.1945 -2.4003 -6.3682 0
M  V30 56 Fe -2.3444 -1.5003 -5.9729 0
M  V30 57 Ag -4.4517 -0.7310 -5.2272 0
M  V30 58 Ag 2.1669 -2.0341 -6.0339 0
M  V30 59 Fe 2.9244 0.0166 -5.1131 0
M  V30 60 Ag 3.5263 1.9976 -3.9547 0
M  V30 61 Ag 4.6456 -1.1073 4.1450 0
M  V30 62 Fe 3.3149 -3.0454 3.8330 0
M  V30 63 Ag 1.6847 -4.7196 3.4269 0
M  V30 64 Ag -4.2194 -0.7782 1.1259 0
M  V30 65 Fe -2.9186 -2.7028 1.5992 0
M  V30 66 Ag -1.5135 -4.5374 2.1277 0
M  V30 67 Ag -0.6959 -4.1233 4.2532 0
M  V30 68 Fe -1.1215 -2.0048 5.2383 0
M  V30 69 Ag -1.3426 0.2361 5.9921 0
M  V30 70 Ag -3.1577 4.6578 -2.2489 0
M  V30 71 Fe -4.4600 2.9108 -3.1877 0
M  V30 72 Ag -5.6051 0.9868 -3.9720 0
M  V30 73 Ba 3.3761 0.3540 2.6399 0
M  V30 74 Ga 3.1950 -0.4661 1.4241 0
M  V30 75 Ba 2.8793 -1.2012 0.1817 0
M  V30 76 Ba -5.9911 0.4699 0.3781 0
M  V30 77 Ga -6.2100 -0.0834 -0.9749 0
M  V30 78 Ba -6.3945 -0.6331 -2.3344 0
M  V30 79 Ba 2.4224 -3.7165 -0.6439 0
M  V30 80 Ga 1.5570 -4.4121 0.3285 0
M  V30 81 Ba 0.6775 -5.1637 1.2454 0
M  V30 82 Ba 4.7559 1.6929 -2.0086 0
M  V30 83 Ga 4.7492 0.2596 -1.6496 0
M  V30 84 Ba 4.7396 -1.1740 -1.2913 0
M  V30 85 Ba 3.4849 2.1574 4.2255 0
M  V30 86 Ga 2.1062 2.5168 4.6544 0
M  V30 87 Ba 0.7198 2.8376 5.0893 0
M  V30 88 Ba 2.1041 3.8701 -2.8697 0
M  V30 89 Ga 0.7567 4.3729 -2.4506 0
M  V30 90 Ba -0.5910 4.9715 -2.1873 0
M  V30 91 Ba -4.7886 2.6725 1.1778 0
M  V30 92 Ga -4.0728 3.8378 0.6200 0
M  V30 93 Ba -3.3332 4.9799 0.0457 0
M  V30 94 Ba -2.8643 1.2906 1.6820 0
M  V30 95 Ga -1.9900 1.4661 2.8606 0
M  V30 96 Ba -0.9691 1.6761 3.9081 0
M  V30 97 Ba 2.3744 -4.0475 -4.6834 0
M  V30 98 Ga 3.1619 -3.7800 -3.4617 0
M  V30 99 Ba 3.9236 -3.4862 -2.2299 0
M  V30 END ATOM
M  V30 BEGIN BOND
M  V30 1 1 1 2
M  V30 2 1 1 3
M  V30 3 1 1 4
M  V30 4 1 1 5
M  V30 5 1 6 7
M  V30 6 1 6 8
M  V30 7 1 6 9
M  V30 8 1 6 10
M  V30 9 1 11 12
M  V30 10 1 11 13
M  V30 11 1 11 14
M  V30 12 1 11 15
M  V30 13 1 16 17
M  V30 14 1 16 18
M  V30 15 1 16 19
M  V30 16 1 16 20
M  V30 17 1 21 22
M  V30 18 1 21 23
M  V30 19 1 21 24
M  V30 20 1 21 25
M  V30 21 1 26 27
M  V30 22 1 26 28
M  V30 23 1 26 29
M  V30 24 1 26 30
M  V30 25 1 31 32
M  V30 26 1 31 33
M  V30 27 1 31 34
M  V30 28 1 31 35
M  V30 29 1 36 37
M  V30 30 1 36 38
M  V30 31 1 36 39
M  V30 32 1 36 40
M  V30 33 1 41 42
M  V30 34 1 41 43
M  V30 35 1 41 44
M  V30 36 1 41 45
M  V30 37 1 46 47
M  V30 38 1 47 48
M  V30 39 1 49 50
M  V30 40 1 50 51
M  V30 41 1 52 53
M  V30 42 1 53 54
M  V30 43 1 55 56
M  V30 44 1 56 57
M  V30 45 1 58 59
M  V30 46 1 59 60
M  V30 47 1 61 62
M  V30 48 1 62 63
M  V30 49 1 64 65
M  V30 50 1 65 66
M  V30 51 1 67 68
M  V30 52 1 68 69
M  V30 53 1 70 71
M  V30 54 1 71 72
M  V30 55 1 73 74
M  V30 56 1 74 75
M  V30 57 1 76 77
M  V30 58 1 77 78
M  V30 59 1 79 80
M  V30 60 1 80 81
M  V30 61 1 82 83
M  V30 62 1 83 84
M  V30 63 1 85 86
M  V30 64 1 86 87
M  V30 65 1 88 89
M  V30 66 1 89 90
M  V30 67 1 91 92
M  V30 68 1 92 93
M  V30 69 1 94 95
M  V30 70 1 95 96
M  V30 71 1 97 98
M  V30 72 1 98 99
M  V30 73 1 2 76
M  V30 74 1 3 94
M  V30 75 1 4 91
M  V30 76 1 5 64
M  V30 77 1 7 73
M  V30 78 1 8 85
M  V30 79 1 9 61
M  V30 80 1 10 52
M  V30 81 1 12 55
M  V30 82 1 13 97
M  V30 83 1 14 58
M  V30 84 1 15 49
M  V30 85 1 17 60
M  V30 86 1 18 46
M  V30 87 1 19 82
M  V30 88 1 20 88
M  V30 89 1 22 75
M  V30 90 1 23 99
M  V30 91 1 24 84
M  V30 92 1 25 79
M  V30 93 1 27 48
M  V30 94 1 28 70
M  V30 95 1 29 93
M  V30 96 1 30 90
M  V30 97 1 32 78
M  V30 98 1 33 72
M  V30 99 1 34 51
M  V30 100 1 35 57
M  V30 101 1 37 81
M  V30 102 1 38 67
M  V30 103 1 39 63
M  V30 104 1 40 66
M  V30 105 1 42 87
M  V30 106 1 43 96
M  V30 107 1 44 69
M  V30 108 1 45 54
M  V30 END BOND
M  V30 END CTAB
M  END

$$$$
