
     RDKit          3D

  0  0  0  0  0  0  0  0  0  0999 V3000
M  V30 BEGIN CTAB
M  V30 COUNTS 99 108 0 0 0
M  V30 BEGIN ATOM
M  V30 1 Pd 2.1845 -4.7814 -1.9901 0
M  V30 2 Pb 2.8830 -4.5680 -1.3028 0
M  V30 3 Pb 2.7739 -4.4456 -2.7230 0
M  V30 4 Pb 1.5799 -5.1383 -1.2821 0
M  V30 5 Pb 1.4939 -4.9963 -2.6810 0
M  V30 6 Pd 0.4906 4.7445 -3.5340 0
M  V30 7 Pb 0.6766 4.4783 -2.5877 0
M  V30 8 Pb 0.3255 4.8888 -4.5058 0
M  V30 9 Pb -0.4621 4.4650 -3.4610 0
M  V30 10 Pb 1.4680 4.7775 -3.7374 0
M  V30 11 Pd 1.0491 4.7726 4.0937 0
M  V30 12 Pb 1.6670 4.4110 3.3893 0
M  V30 13 Pb 0.5394 5.3436 3.4521 0
M  V30 14 Pb 0.3556 4.9736 4.7788 0
M  V30 15 Pb 1.4576 4.1181 4.7209 0
M  V30 16 Pd -4.2600 0.4190 5.2608 0
M  V30 17 Pb -3.9973 1.2871 5.6775 0
M  V30 18 Pb -4.5030 -0.4541 4.8409 0
M  V30 19 Pb -4.7071 0.9251 4.5201 0
M  V30 20 Pb -3.7461 -0.0813 5.9602 0
M  V30 21 Pd -2.2509 2.8706 0.9473 0
M  V30 22 Pb -1.3114 2.9681 0.6175 0
M  V30 23 Pb -2.1953 3.8414 1.1800 0
M  V30 24 Pb -3.1803 2.7827 1.3154 0
M  V30 25 Pb -2.2711 1.9046 0.6836 0
M  V30 26 Pd -1.3524 -3.8992 4.7921 0
M  V30 27 Pb -2.2970 -3.7106 4.5228 0
M  V30 28 Pb -0.3967 -4.0939 5.0259 0
M  V30 29 Pb -1.2335 -4.4774 3.9893 0
M  V30 30 Pb -1.4852 -3.3131 5.5932 0
M  V30 31 Pd 3.3296 -1.9957 3.0361 0
M  V30 32 Pb 3.6379 -2.5730 2.2736 0
M  V30 33 Pb 3.1117 -2.7950 3.5989 0
M  V30 34 Pb 3.1211 -1.4150 3.8173 0
M  V30 35 Pb 3.4869 -1.1459 2.5223 0
M  V30 36 Pd -1.5653 -1.9749 -4.8286 0
M  V30 37 Pb -1.7377 -1.9786 -3.8435 0
M  V30 38 Pb -1.3543 -1.9539 -5.8113 0
M  V30 39 Pb -1.9289 -1.0419 -4.8152 0
M  V30 40 Pb -1.2352 -2.9187 -4.7941 0
M  V30 41 Pd 2.4092 0.0492 -7.7868 0
M  V30 42 Pb 1.8938 0.8352 -8.1181 0
M  V30 43 Pb 2.9158 -0.7083 -7.3789 0
M  V30 44 Pb 1.6640 -0.5623 -8.0593 0
M  V30 45 Pb 3.0595 0.7050 -7.3974 0
M  V30 46 Ag -2.2823 1.1846 0.4691 0
M  V30 47 Fe -2.0825 -0.4113 -1.2799 0
M  V30 48 Ag -1.8629 -1.9148 -3.1066 0
M  V30 49 Ag 1.7114 3.5485 5.1267 0
M  V30 50 Fe 2.3921 1.2910 4.9078 0
M  V30 51 Ag 3.0175 -0.9297 4.3737 0
M  V30 52 Ag 2.1511 4.6344 -4.0105 0
M  V30 53 Fe 3.0441 3.0265 -5.5148 0
M  V30 54 Ag 3.4387 1.2491 -7.0423 0
M  V30 55 Ag 0.2423 4.8561 -5.2456 0
M  V30 56 Fe 0.7726 3.3204 -6.9680 0
M  V30 57 Ag 1.5312 1.4747 -8.2425 0
M  V30 58 Ag 2.1014 4.0200 2.9109 0
M  V30 59 Fe 2.8973 1.8207 2.4569 0
M  V30 60 Ag 3.5542 -0.4569 2.2180 0
M  V30 61 Ag -0.2220 4.9848 5.2487 0
M  V30 62 Fe -2.0705 3.5910 5.7538 0
M  V30 63 Ag -3.7607 1.9414 5.9516 0
M  V30 64 Ag -1.1124 4.1071 -3.5405 0
M  V30 65 Fe -1.8169 1.9114 -4.1064 0
M  V30 66 Ag -2.2121 -0.3561 -4.6921 0
M  V30 67 Ag 1.1125 -5.4100 -0.7665 0
M  V30 68 Fe -0.0146 -5.1788 1.3069 0
M  V30 69 Ag -1.1192 -4.9030 3.3869 0
M  V30 70 Ag 3.1752 -4.2046 -3.3075 0
M  V30 71 Fe 3.2922 -2.7521 -5.1807 0
M  V30 72 Ag 3.2852 -1.2502 -7.0182 0
M  V30 73 Ba 0.8424 4.2204 -1.9024 0
M  V30 74 Ga 0.1012 3.6603 -0.7555 0
M  V30 75 Ba -0.5999 3.0941 0.4136 0
M  V30 76 Ba 3.4278 -4.4270 -0.8030 0
M  V30 77 Ga 3.6202 -3.6944 0.4682 0
M  V30 78 Ba 3.9450 -3.0054 1.7366 0
M  V30 79 Ba -5.0093 1.3215 3.9564 0
M  V30 80 Ga -4.4488 2.0117 2.7741 0
M  V30 81 Ba -3.8744 2.6974 1.5959 0
M  V30 82 Ba -4.6538 -1.1247 4.5438 0
M  V30 83 Ga -3.8486 -2.3530 4.4171 0
M  V30 84 Ba -3.0011 -3.5550 4.3158 0
M  V30 85 Ba -3.3293 -0.4642 6.4552 0
M  V30 86 Ga -2.4733 -1.6632 6.3418 0
M  V30 87 Ba -1.6297 -2.8654 6.1794 0
M  V30 88 Ba 0.9877 -5.1575 -3.2107 0
M  V30 89 Ga -0.0065 -4.3885 -3.9833 0
M  V30 90 Ba -1.0048 -3.6323 -4.7634 0
M  V30 91 Ba -1.1719 -1.9794 -6.5440 0
M  V30 92 Ga -0.0582 -1.4847 -7.3851 0
M  V30 93 Ba 1.0603 -0.9831 -8.2157 0
M  V30 94 Ba 0.3238 -4.2775 5.1464 0
M  V30 95 Ga 1.6244 -3.8187 4.6124 0
M  V30 96 Ba 2.9171 -3.3481 4.0698 0
M  V30 97 Ba 0.0659 5.7174 3.0079 0
M  V30 98 Ga -1.0146 5.2009 2.1473 0
M  V30 99 Ba -2.0582 4.5655 1.3212 0
M  V30 END ATOM
M  V30 BEGIN BOND
M  V30 1 1 1 2
M  V30 2 1 1 3
M  V30 3 1 1 4
M  V30 4 1 1 5
M  V30 5 1 6 7
M  V30 6 1 6 8
M  V30 7 1 6 9
M  V30 8 1 6 10
M  V30 9 1 11 12
M  V30 10 1 11 13
M  V30 11 1 11 14
M  V30 12 1 11 15
M  V30 13 1 16 17
M  V30 14 1 16 18
M  V30 15 1 16 19
M  V30 16 1 16 20
M  V30 17 1 21 22
M  V30 18 1 21 23
M  V30 19 1 21 24
M  V30 20 1 21 25
M  V30 21 1 26 27
M  V30 22 1 26 28
M  V30 23 1 26 29
M  V30 24 1 26 30
M  V30 25 1 31 32
M  V30 26 1 31 33
M  V30 27 1 31 34
M  V30 28 1 31 35
M  V30 29 1 36 37
M  V30 30 1 36 38
M  V30 31 1 36 39
M  V30 32 1 36 40
M  V30 33 1 41 42
M  V30 34 1 41 43
M  V30 35 1 41 44
M  V30 36 1 41 45
M  V30 37 1 46 47
M  V30 38 1 47 48
M  V30 39 1 49 50
M  V30 40 1 50 51
M  V30 41 1 52 53
M  V30 42 1 53 54
M  V30 43 1 55 56
M  V30 44 1 56 57
M  V30 45 1 58 59
M  V30 46 1 59 60
M  V30 47 1 61 62
M  V30 48 1 62 63
M  V30 49 1 64 65
M  V30 50 1 65 66
M  V30 51 1 67 68
M  V30 52 1 68 69
M  V30 53 1 70 71
M  V30 54 1 71 72
M  V30 55 1 73 74
M  V30 56 1 74 75
M  V30 57 1 76 77
M  V30 58 1 77 78
M  V30 59 1 79 80
M  V30 60 1 80 81
M  V30 61 1 82 83
M  V30 62 1 83 84
M  V30 63 1 85 86
M  V30 64 1 86 87
M  V30 65 1 88 89
M  V30 66 1 89 90
M  V30 67 1 91 92
M  V30 68 1 92 93
M  V30 69 1 94 95
M  V30 70 1 95 96
M  V30 71 1 97 98
M  V30 72 1 98 99
M  V30 73 1 2 76
M  V30 74 1 3 70
M  V30 75 1 4 67
M  V30 76 1 5 88
M  V30 77 1 7 73
M  V30 78 1 8 55
M  V30 79 1 9 64
M  V30 80 1 10 52
M  V30 81 1 12 58
M  V30 82 1 13 97
M  V30 83 1 14 61
M  V30 84 1 15 49
M  V30 85 1 17 63
M  V30 86 1 18 82
M  V30 87 1 19 79
M  V30 88 1 20 85
M  V30 89 1 22 75
M  V30 90 1 23 99
M  V30 91 1 24 81
M  V30 92 1 25 46
M  V30 93 1 27 84
M  V30 94 1 28 94
M  V30 95 1 29 69
M  V30 96 1 30 87
M  V30 97 1 32 78
M  V30 98 1 33 96
M  V30 99 1 34 51
M  V30 100 1 35 60
M  V30 101 1 37 48
M  V30 102 1 38 91
M  V30 103 1 39 66
M  V30 104 1 40 90
M  V30 105 1 42 57
M  V30 106 1 43 72
M  V30 107 1 44 93
M  V30 108 1 45 54
M  V30 END BOND
M  V30 END CTAB
M  END

$$$$
