
     RDKit          3D

  0  0  0  0  0  0  0  0  0  0999 V3000
M  V30 BEGIN CTAB
M  V30 COUNTS 99 108 0 0 0
M  V30 BEGIN ATOM
M  V30 1 Pd 2.7403 0.5431 -2.1511 0
M  V30 2 Pb 3.7106 0.7471 -2.2897 0
M  V30 3 Pb 3.0162 1.5028 -2.0781 0
M  V30 4 Pb 2.0084 -0.1310 -2.1194 0
M  V30 5 Pb 2.4377 0.7721 -3.0773 0
M  V30 6 Pd -3.4544 3.8463 2.9027 0
M  V30 7 Pb -3.8306 3.6788 3.8176 0
M  V30 8 Pb -3.0770 4.0482 1.9976 0
M  V30 9 Pb -4.2682 3.4587 2.4654 0
M  V30 10 Pb -2.6369 4.2408 3.3221 0
M  V30 11 Pd -3.6180 -0.2147 6.5198 0
M  V30 12 Pb -4.4765 -0.4440 6.0645 0
M  V30 13 Pb -3.9220 0.7369 6.5653 0
M  V30 14 Pb -2.7164 0.0111 6.8900 0
M  V30 15 Pb -3.2757 -1.1473 6.4027 0
M  V30 16 Pd 1.4890 -1.9719 -6.9720 0
M  V30 17 Pb 1.6887 -2.8420 -7.4162 0
M  V30 18 Pb 1.3956 -1.5468 -7.8723 0
M  V30 19 Pb 1.1189 -2.4678 -6.1662 0
M  V30 20 Pb 1.3752 -1.0788 -6.5359 0
M  V30 21 Pd 1.4809 4.8412 1.0637 0
M  V30 22 Pb 1.9565 4.6774 0.1976 0
M  V30 23 Pb 1.0310 4.9923 1.9440 0
M  V30 24 Pb 2.3744 4.7930 1.5025 0
M  V30 25 Pb 0.5868 4.8391 0.6154 0
M  V30 26 Pd 2.9580 -2.9223 5.1283 0
M  V30 27 Pb 2.0594 -3.3476 5.2381 0
M  V30 28 Pb 3.8482 -2.4575 4.9938 0
M  V30 29 Pb 3.2686 -3.6314 4.5013 0
M  V30 30 Pb 2.6215 -2.1921 5.7250 0
M  V30 31 Pd -3.3454 -3.5926 -6.9105 0
M  V30 32 Pb -3.8280 -2.8747 -6.4066 0
M  V30 33 Pb -3.5664 -3.1785 -7.7932 0
M  V30 34 Pb -2.9591 -4.3741 -7.3937 0
M  V30 35 Pb -2.7243 -3.7730 -6.1265 0
M  V30 36 Pd -4.5002 -0.5379 -0.1559 0
M  V30 37 Pb -4.9605 -0.5204 -1.0419 0
M  V30 38 Pb -5.3019 -0.6645 0.4229 0
M  V30 39 Pb -3.7142 -0.9384 -0.6180 0
M  V30 40 Pb -5.0315 0.2574 0.1428 0
M  V30 41 Pd 6.5420 -0.3297 1.2487 0
M  V30 42 Pb 6.5284 -1.2852 0.9682 0
M  V30 43 Pb 6.5965 -0.0134 0.2981 0
M  V30 44 Pb 6.4242 -0.6332 2.2083 0
M  V30 45 Pb 6.4916 0.6178 1.5555 0
M  V30 46 Ag -2.0023 0.1108 7.0986 0
M  V30 47 Fe 0.2022 -0.6891 6.7156 0
M  V30 48 Ag 2.2925 -1.6676 6.1505 0
M  V30 49 Ag 1.4359 -0.6086 -2.1143 0
M  V30 50 Fe -0.8343 -0.9802 -1.5455 0
M  V30 51 Ag -3.1086 -1.2392 -0.9324 0
M  V30 52 Ag 3.5836 -4.0356 3.9632 0
M  V30 53 Fe 5.0586 -3.4429 2.2182 0
M  V30 54 Ag 6.4026 -2.0142 0.9053 0
M  V30 55 Ag 1.6799 -3.5074 -7.7412 0
M  V30 56 Fe -0.2298 -4.8259 -8.0839 0
M  V30 57 Ag -2.5481 -4.8912 -7.7295 0
M  V30 58 Ag -4.2429 -2.3907 -6.0090 0
M  V30 59 Fe -4.7788 -1.4130 -3.9114 0
M  V30 60 Ag -5.1976 -0.5157 -1.7524 0
M  V30 61 Ag -5.0734 -0.5835 5.6359 0
M  V30 62 Fe -5.6826 -0.7240 3.3494 0
M  V30 63 Ag -5.7874 -0.7576 0.9819 0
M  V30 64 Ag 1.0152 -1.3485 -8.4889 0
M  V30 65 Fe -1.2700 -1.8579 -8.9023 0
M  V30 66 Ag -3.4012 -2.7924 -8.4157 0
M  V30 67 Ag 3.0629 4.6882 1.7707 0
M  V30 68 Fe 4.8157 3.0948 1.8605 0
M  V30 69 Ag 6.3839 1.3183 1.7917 0
M  V30 70 Ag -2.9407 -1.8092 6.2903 0
M  V30 71 Fe -0.8469 -2.8264 5.8175 0
M  V30 72 Ag 1.3550 -3.5824 5.3459 0
M  V30 73 Ba 3.1729 2.2376 -2.0625 0
M  V30 74 Ga 2.7643 3.3891 -1.2322 0
M  V30 75 Ba 2.3707 4.5572 -0.4182 0
M  V30 76 Ba -2.0200 4.5403 3.6251 0
M  V30 77 Ga -0.6625 4.8227 3.1227 0
M  V30 78 Ba 0.6902 5.0981 2.6037 0
M  V30 79 Ba -2.7946 4.2182 1.3225 0
M  V30 80 Ga -1.4463 4.5173 0.8014 0
M  V30 81 Ba -0.0916 4.8139 0.2961 0
M  V30 82 Ba 0.7038 -2.8544 -5.6435 0
M  V30 83 Ga -0.7197 -3.3471 -5.6140 0
M  V30 84 Ba -2.1480 -3.8262 -5.6164 0
M  V30 85 Ba 4.4537 0.8457 -2.3445 0
M  V30 86 Ga 5.5513 0.5600 -1.3958 0
M  V30 87 Ba 6.6066 0.2537 -0.4063 0
M  V30 88 Ba 2.1462 0.9592 -3.7438 0
M  V30 89 Ga 1.7522 0.2653 -4.9858 0
M  V30 90 Ba 1.3436 -0.3875 -6.2453 0
M  V30 91 Ba -4.0972 3.5877 4.5164 0
M  V30 92 Ga -4.1274 2.5154 5.5326 0
M  V30 93 Ba -4.1621 1.4476 6.5533 0
M  V30 94 Ba -4.8715 3.1824 2.1117 0
M  V30 95 Ga -5.1466 2.0116 1.2536 0
M  V30 96 Ba -5.4301 0.8434 0.3947 0
M  V30 97 Ba 4.5296 -2.1241 4.9128 0
M  V30 98 Ga 5.3939 -1.4912 3.8756 0
M  V30 99 Ba 6.3539 -0.8383 2.9399 0
M  V30 END ATOM
M  V30 BEGIN BOND
M  V30 1 1 1 2
M  V30 2 1 1 3
M  V30 3 1 1 4
M  V30 4 1 1 5
M  V30 5 1 6 7
M  V30 6 1 6 8
M  V30 7 1 6 9
M  V30 8 1 6 10
M  V30 9 1 11 12
M  V30 10 1 11 13
M  V30 11 1 11 14
M  V30 12 1 11 15
M  V30 13 1 16 17
M  V30 14 1 16 18
M  V30 15 1 16 19
M  V30 16 1 16 20
M  V30 17 1 21 22
M  V30 18 1 21 23
M  V30 19 1 21 24
M  V30 20 1 21 25
M  V30 21 1 26 27
M  V30 22 1 26 28
M  V30 23 1 26 29
M  V30 24 1 26 30
M  V30 25 1 31 32
M  V30 26 1 31 33
M  V30 27 1 31 34
M  V30 28 1 31 35
M  V30 29 1 36 37
M  V30 30 1 36 38
M  V30 31 1 36 39
M  V30 32 1 36 40
M  V30 33 1 41 42
M  V30 34 1 41 43
M  V30 35 1 41 44
M  V30 36 1 41 45
M  V30 37 1 46 47
M  V30 38 1 47 48
M  V30 39 1 49 50
M  V30 40 1 50 51
M  V30 41 1 52 53
M  V30 42 1 53 54
M  V30 43 1 55 56
M  V30 44 1 56 57
M  V30 45 1 58 59
M  V30 46 1 59 60
M  V30 47 1 61 62
M  V30 48 1 62 63
M  V30 49 1 64 65
M  V30 50 1 65 66
M  V30 51 1 67 68
M  V30 52 1 68 69
M  V30 53 1 70 71
M  V30 54 1 71 72
M  V30 55 1 73 74
M  V30 56 1 74 75
M  V30 57 1 76 77
M  V30 58 1 77 78
M  V30 59 1 79 80
M  V30 60 1 80 81
M  V30 61 1 82 83
M  V30 62 1 83 84
M  V30 63 1 85 86
M  V30 64 1 86 87
M  V30 65 1 88 89
M  V30 66 1 89 90
M  V30 67 1 91 92
M  V30 68 1 92 93
M  V30 69 1 94 95
M  V30 70 1 95 96
M  V30 71 1 97 98
M  V30 72 1 98 99
M  V30 73 1 2 85
M  V30 74 1 3 73
M  V30 75 1 4 49
M  V30 76 1 5 88
M  V30 77 1 7 91
M  V30 78 1 8 79
M  V30 79 1 9 94
M  V30 80 1 10 76
M  V30 81 1 12 61
M  V30 82 1 13 93
M  V30 83 1 14 46
M  V30 84 1 15 70
M  V30 85 1 17 55
M  V30 86 1 18 64
M  V30 87 1 19 82
M  V30 88 1 20 90
M  V30 89 1 22 75
M  V30 90 1 23 78
M  V30 91 1 24 67
M  V30 92 1 25 81
M  V30 93 1 27 72
M  V30 94 1 28 97
M  V30 95 1 29 52
M  V30 96 1 30 48
M  V30 97 1 32 58
M  V30 98 1 33 66
M  V30 99 1 34 57
M  V30 100 1 35 84
M  V30 101 1 37 60
M  V30 102 1 38 63
M  V30 103 1 39 51
M  V30 104 1 40 96
M  V30 105 1 42 54
M  V30 106 1 43 87
M  V30 107 1 44 99
M  V30 108 1 45 69
M  V30 END BOND
M  V30 END CTAB
M  END

$$$$
