
     RDKit          3D

  0  0  0  0  0  0  0  0  0  0999 V3000
M  V30 BEGIN CTAB
M  V30 COUNTS 99 108 0 0 0
M  V30 BEGIN ATOM
M  V30 1 Pd 3.0438 -2.7049 2.9404 0
M  V30 2 Pb 3.8822 -2.2070 3.1771 0
M  V30 3 Pb 2.2270 -3.2495 2.7614 0
M  V30 4 Pb 2.7085 -2.5636 3.8683 0
M  V30 5 Pb 3.3034 -2.7742 1.9751 0
M  V30 6 Pd -4.7180 -4.1840 -5.4137 0
M  V30 7 Pb -4.8569 -3.2211 -5.1795 0
M  V30 8 Pb -5.2720 -4.4654 -4.6298 0
M  V30 9 Pb -3.9893 -4.0016 -6.0697 0
M  V30 10 Pb -4.5740 -5.1483 -5.6086 0
M  V30 11 Pd 1.9662 6.4870 -0.7792 0
M  V30 12 Pb 2.7457 5.8627 -0.8111 0
M  V30 13 Pb 1.6636 6.1479 -1.6659 0
M  V30 14 Pb 1.1460 7.0474 -0.6789 0
M  V30 15 Pb 2.2573 6.7419 0.1391 0
M  V30 16 Pd -2.1811 5.4203 2.2310 0
M  V30 17 Pb -1.9362 6.2003 1.6511 0
M  V30 18 Pb -1.6237 5.7771 2.9855 0
M  V30 19 Pb -2.7266 5.0454 1.4780 0
M  V30 20 Pb -2.4416 4.6509 2.8137 0
M  V30 21 Pd -2.3807 1.1012 -4.1308 0
M  V30 22 Pb -3.1465 0.4577 -4.1921 0
M  V30 23 Pb -1.6835 1.8154 -4.1548 0
M  V30 24 Pb -2.9276 1.6755 -3.5189 0
M  V30 25 Pb -1.7752 0.5350 -4.6919 0
M  V30 26 Pd 0.2404 3.0440 6.3398 0
M  V30 27 Pb 0.1922 4.0117 6.0826 0
M  V30 28 Pb 1.1467 3.1368 6.7561 0
M  V30 29 Pb 0.3138 2.0720 6.5497 0
M  V30 30 Pb -0.6499 2.9037 5.9070 0
M  V30 31 Pd 4.9810 2.4380 4.2983 0
M  V30 32 Pb 5.2776 1.4808 4.2986 0
M  V30 33 Pb 4.7383 2.4409 5.2679 0
M  V30 34 Pb 4.6872 3.3906 4.2578 0
M  V30 35 Pb 5.1738 2.5017 3.3201 0
M  V30 36 Pd 0.5286 -3.8965 -4.3455 0
M  V30 37 Pb 0.4248 -2.9668 -4.7051 0
M  V30 38 Pb 0.6875 -4.8399 -4.0250 0
M  V30 39 Pb -0.0935 -4.1347 -5.0992 0
M  V30 40 Pb 1.2032 -3.6175 -3.6559 0
M  V30 41 Pd -1.5069 -7.7415 -1.0743 0
M  V30 42 Pb -2.4727 -7.6021 -0.8538 0
M  V30 43 Pb -1.2426 -7.2076 -0.2740 0
M  V30 44 Pb -0.5865 -7.7043 -1.4610 0
M  V30 45 Pb -1.7999 -8.2223 -1.8933 0
M  V30 46 Ag -3.1285 4.7629 0.9078 0
M  V30 47 Fe -3.2427 3.4420 -1.0659 0
M  V30 48 Ag -3.3038 2.1102 -3.0345 0
M  V30 49 Ag 2.4966 6.8280 0.8405 0
M  V30 50 Fe 3.4813 5.5948 2.6094 0
M  V30 51 Ag 4.4585 4.0959 4.1645 0
M  V30 52 Ag -4.4069 -5.8703 -5.6525 0
M  V30 53 Fe -3.2757 -7.4460 -4.3047 0
M  V30 54 Ag -2.0755 -8.4581 -2.5403 0
M  V30 55 Ag -5.5272 -4.7679 -3.9922 0
M  V30 56 Fe -4.6041 -6.1027 -2.2571 0
M  V30 57 Ag -3.1930 -7.3913 -0.8456 0
M  V30 58 Ag 3.3006 5.3632 -0.7496 0
M  V30 59 Fe 4.3849 3.9381 0.8083 0
M  V30 60 Ag 5.2592 2.6333 2.5879 0
M  V30 61 Ag 2.3973 -2.3913 4.5245 0
M  V30 62 Fe 1.3918 -0.6072 5.7186 0
M  V30 63 Ag 0.4433 1.3462 6.6699 0
M  V30 64 Ag 3.4409 -2.7946 1.2357 0
M  V30 65 Fe 2.5889 -3.1254 -0.9607 0
M  V30 66 Ag 1.7493 -3.4510 -3.1626 0
M  V30 67 Ag 1.6219 -3.6817 2.6800 0
M  V30 68 Fe 0.2944 -5.2313 1.4693 0
M  V30 69 Ag -1.0865 -6.7810 0.3200 0
M  V30 70 Ag 1.4425 5.8265 -2.3024 0
M  V30 71 Fe 0.1276 4.1131 -3.2837 0
M  V30 72 Ag -1.2001 2.3835 -4.2186 0
M  V30 73 Ba -5.0126 -2.5203 -4.9605 0
M  V30 74 Ga -4.3249 -1.2579 -4.6221 0
M  V30 75 Ba -3.7865 0.0664 -4.2517 0
M  V30 76 Ba 4.5184 -1.8777 3.4108 0
M  V30 77 Ga 4.9898 -0.5378 3.8226 0
M  V30 78 Ba 5.5272 0.7731 4.2469 0
M  V30 79 Ba -1.2551 0.1718 -5.0944 0
M  V30 80 Ga -0.4881 -1.0900 -5.0366 0
M  V30 81 Ba 0.3343 -2.3170 -5.0742 0
M  V30 82 Ba -1.2064 6.0268 3.5614 0
M  V30 83 Ga -0.5312 5.3865 4.7119 0
M  V30 84 Ba 0.1371 4.7273 5.8557 0
M  V30 85 Ba -2.6329 4.0853 3.2671 0
M  V30 86 Ga -1.9815 3.4323 4.4176 0
M  V30 87 Ba -1.3085 2.7966 5.5652 0
M  V30 88 Ba 0.5159 7.4302 -0.5491 0
M  V30 89 Ga -0.6372 7.1274 0.3205 0
M  V30 90 Ba -1.7676 6.7813 1.2040 0
M  V30 91 Ba -3.3724 -4.0003 -6.4953 0
M  V30 92 Ga -1.9436 -4.0818 -6.1147 0
M  V30 93 Ba -0.5177 -4.1732 -5.7254 0
M  V30 94 Ba 0.9092 -5.5138 -3.7540 0
M  V30 95 Ga 0.4724 -6.5622 -2.8009 0
M  V30 96 Ba 0.0469 -7.6223 -1.8555 0
M  V30 97 Ba 1.8299 3.1128 7.0702 0
M  V30 98 Ga 3.1830 2.8269 6.5511 0
M  V30 99 Ba 4.5131 2.5387 5.9768 0
M  V30 END ATOM
M  V30 BEGIN BOND
M  V30 1 1 1 2
M  V30 2 1 1 3
M  V30 3 1 1 4
M  V30 4 1 1 5
M  V30 5 1 6 7
M  V30 6 1 6 8
M  V30 7 1 6 9
M  V30 8 1 6 10
M  V30 9 1 11 12
M  V30 10 1 11 13
M  V30 11 1 11 14
M  V30 12 1 11 15
M  V30 13 1 16 17
M  V30 14 1 16 18
M  V30 15 1 16 19
M  V30 16 1 16 20
M  V30 17 1 21 22
M  V30 18 1 21 23
M  V30 19 1 21 24
M  V30 20 1 21 25
M  V30 21 1 26 27
M  V30 22 1 26 28
M  V30 23 1 26 29
M  V30 24 1 26 30
M  V30 25 1 31 32
M  V30 26 1 31 33
M  V30 27 1 31 34
M  V30 28 1 31 35
M  V30 29 1 36 37
M  V30 30 1 36 38
M  V30 31 1 36 39
M  V30 32 1 36 40
M  V30 33 1 41 42
M  V30 34 1 41 43
M  V30 35 1 41 44
M  V30 36 1 41 45
M  V30 37 1 46 47
M  V30 38 1 47 48
M  V30 39 1 49 50
M  V30 40 1 50 51
M  V30 41 1 52 53
M  V30 42 1 53 54
M  V30 43 1 55 56
M  V30 44 1 56 57
M  V30 45 1 58 59
M  V30 46 1 59 60
M  V30 47 1 61 62
M  V30 48 1 62 63
M  V30 49 1 64 65
M  V30 50 1 65 66
M  V30 51 1 67 68
M  V30 52 1 68 69
M  V30 53 1 70 71
M  V30 54 1 71 72
M  V30 55 1 73 74
M  V30 56 1 74 75
M  V30 57 1 76 77
M  V30 58 1 77 78
M  V30 59 1 79 80
M  V30 60 1 80 81
M  V30 61 1 82 83
M  V30 62 1 83 84
M  V30 63 1 85 86
M  V30 64 1 86 87
M  V30 65 1 88 89
M  V30 66 1 89 90
M  V30 67 1 91 92
M  V30 68 1 92 93
M  V30 69 1 94 95
M  V30 70 1 95 96
M  V30 71 1 97 98
M  V30 72 1 98 99
M  V30 73 1 2 76
M  V30 74 1 3 67
M  V30 75 1 4 61
M  V30 76 1 5 64
M  V30 77 1 7 73
M  V30 78 1 8 55
M  V30 79 1 9 91
M  V30 80 1 10 52
M  V30 81 1 12 58
M  V30 82 1 13 70
M  V30 83 1 14 88
M  V30 84 1 15 49
M  V30 85 1 17 90
M  V30 86 1 18 82
M  V30 87 1 19 46
M  V30 88 1 20 85
M  V30 89 1 22 75
M  V30 90 1 23 72
M  V30 91 1 24 48
M  V30 92 1 25 79
M  V30 93 1 27 84
M  V30 94 1 28 97
M  V30 95 1 29 63
M  V30 96 1 30 87
M  V30 97 1 32 78
M  V30 98 1 33 99
M  V30 99 1 34 51
M  V30 100 1 35 60
M  V30 101 1 37 81
M  V30 102 1 38 94
M  V30 103 1 39 93
M  V30 104 1 40 66
M  V30 105 1 42 57
M  V30 106 1 43 69
M  V30 107 1 44 96
M  V30 108 1 45 54
M  V30 END BOND
M  V30 END CTAB
M  END

$$$$
