
     RDKit          3D

  0  0  0  0  0  0  0  0  0  0999 V3000
M  V30 BEGIN CTAB
M  V30 COUNTS 99 108 0 0 0
M  V30 BEGIN ATOM
M  V30 1 Pd 2.1185 2.1902 2.6969 0
M  V30 2 Pb 2.8824 2.8209 2.5538 0
M  V30 3 Pb 1.3197 1.5981 2.8315 0
M  V30 4 Pb 1.7233 2.8293 3.3556 0
M  V30 5 Pb 2.4857 1.6011 1.9752 0
M  V30 6 Pd -2.1849 -8.2983 1.7729 0
M  V30 7 Pb -2.6120 -8.1286 0.8855 0
M  V30 8 Pb -1.7065 -8.3598 2.6453 0
M  V30 9 Pb -1.3875 -8.6793 1.3071 0
M  V30 10 Pb -2.8551 -7.7201 2.2422 0
M  V30 11 Pd 1.9230 1.5555 -4.4903 0
M  V30 12 Pb 2.0584 2.2454 -5.1950 0
M  V30 13 Pb 1.7265 0.9548 -3.7153 0
M  V30 14 Pb 1.0620 1.2756 -4.9082 0
M  V30 15 Pb 2.7512 1.8999 -4.0174 0
M  V30 16 Pd -4.8062 1.5940 -1.9718 0
M  V30 17 Pb -4.4139 1.3456 -2.8546 0
M  V30 18 Pb -4.8192 2.5661 -2.2145 0
M  V30 19 Pb -4.7187 0.6431 -1.6726 0
M  V30 20 Pb -5.1325 1.8763 -1.0707 0
M  V30 21 Pd -1.3230 -2.8720 -2.6864 0
M  V30 22 Pb -1.8709 -3.6958 -2.8232 0
M  V30 23 Pb -0.7227 -2.1111 -2.4345 0
M  V30 24 Pb -2.1035 -2.4911 -2.1818 0
M  V30 25 Pb -0.5526 -3.2917 -3.1696 0
M  V30 26 Pd -2.7664 7.1523 1.8398 0
M  V30 27 Pb -3.1682 7.1972 0.9247 0
M  V30 28 Pb -1.9903 7.7251 1.5744 0
M  V30 29 Pb -2.3015 6.9579 2.7007 0
M  V30 30 Pb -3.4799 6.4891 2.0610 0
M  V30 31 Pd 3.7826 5.8750 -1.1808 0
M  V30 32 Pb 4.0280 5.5252 -0.2733 0
M  V30 33 Pb 3.3332 6.6706 -0.7731 0
M  V30 34 Pb 4.1233 5.0251 -1.6133 0
M  V30 35 Pb 3.5950 6.2286 -2.0928 0
M  V30 36 Pd 3.3067 -4.5330 -0.9216 0
M  V30 37 Pb 2.9500 -4.5749 -1.8550 0
M  V30 38 Pb 3.6044 -4.4252 0.0262 0
M  V30 39 Pb 3.0836 -5.5025 -0.7966 0
M  V30 40 Pb 3.4689 -3.5519 -1.0096 0
M  V30 41 Pd -0.1154 -2.7246 4.9753 0
M  V30 42 Pb 0.0357 -3.6418 5.3367 0
M  V30 43 Pb -0.2902 -1.8434 4.5295 0
M  V30 44 Pb 0.8695 -2.6431 4.8441 0
M  V30 45 Pb -1.0900 -2.9565 4.9507 0
M  V30 46 Ag -2.8650 -7.9272 0.2097 0
M  V30 47 Fe -2.6769 -6.2111 -1.4191 0
M  V30 48 Ag -2.2595 -4.3357 -2.8126 0
M  V30 49 Ag -4.7972 3.3134 -2.2963 0
M  V30 50 Fe -4.1811 5.3094 -1.1620 0
M  V30 51 Ag -3.4658 7.0873 0.2441 0
M  V30 52 Ag -3.2215 -7.1871 2.6271 0
M  V30 53 Fe -2.7135 -5.1798 3.7983 0
M  V30 54 Ag -1.7685 -3.2666 4.8500 0
M  V30 55 Ag -1.3447 -8.2664 3.2909 0
M  V30 56 Fe -0.5277 -6.4630 4.5925 0
M  V30 57 Ag 0.0910 -4.3666 5.5070 0
M  V30 58 Ag 2.1721 2.8875 -5.5466 0
M  V30 59 Fe 2.8226 4.9404 -4.5878 0
M  V30 60 Ag 3.4669 6.3543 -2.8137 0
M  V30 61 Ag -5.3160 2.1782 -0.4105 0
M  V30 62 Fe -4.7732 4.0101 0.9974 0
M  V30 63 Ag -3.9785 5.9354 2.1349 0
M  V30 64 Ag 0.3764 1.1012 -5.1474 0
M  V30 65 Fe -1.8920 1.0752 -4.4583 0
M  V30 66 Ag -4.0509 1.1665 -3.4826 0
M  V30 67 Ag -0.7348 -8.8201 0.9665 0
M  V30 68 Fe 1.1339 -7.6440 0.0879 0
M  V30 69 Ag 2.8591 -6.2152 -0.7062 0
M  V30 70 Ag 1.3843 3.3408 3.7849 0
M  V30 71 Fe -0.2354 5.0733 3.7215 0
M  V30 72 Ag -1.8907 6.7127 3.2748 0
M  V30 73 Ag 2.7665 1.2096 1.3983 0
M  V30 74 Fe 3.1729 -0.7938 0.1886 0
M  V30 75 Ag 3.5690 -2.8100 -1.0029 0
M  V30 76 Ag 3.7742 -4.2305 0.7299 0
M  V30 77 Fe 2.8451 -3.4548 2.7714 0
M  V30 78 Ag 1.5852 -2.7218 4.6440 0
M  V30 79 Ag -1.3576 8.0797 1.3814 0
M  V30 80 Fe 0.8104 7.7727 0.4596 0
M  V30 81 Ag 2.9207 7.2283 -0.4863 0
M  V30 82 Ba 3.4436 3.3097 2.4524 0
M  V30 83 Ga 3.8280 4.2842 1.4102 0
M  V30 84 Ba 4.2558 5.2728 0.3986 0
M  V30 85 Ba 0.0319 -3.6146 -3.5145 0
M  V30 86 Ga 1.3456 -4.1046 -3.0524 0
M  V30 87 Ba 2.6468 -4.5793 -2.5412 0
M  V30 88 Ba -4.6245 -0.0587 -1.4226 0
M  V30 89 Ga -3.6491 -1.1486 -1.6395 0
M  V30 90 Ba -2.7192 -2.2873 -1.7963 0
M  V30 91 Ba 3.3788 2.1533 -3.6631 0
M  V30 92 Ga 3.8264 3.2890 -2.8051 0
M  V30 93 Ba 4.3662 4.3826 -1.9453 0
M  V30 94 Ba 0.6775 1.2194 2.9384 0
M  V30 95 Ga 0.1671 -0.0173 3.5684 0
M  V30 96 Ba -0.4709 -1.2148 4.1567 0
M  V30 97 Ba 1.5527 0.5676 -3.0966 0
M  V30 98 Ga 0.6461 -0.5263 -2.6952 0
M  V30 99 Ba -0.2230 -1.6066 -2.1882 0
M  V30 END ATOM
M  V30 BEGIN BOND
M  V30 1 1 1 2
M  V30 2 1 1 3
M  V30 3 1 1 4
M  V30 4 1 1 5
M  V30 5 1 6 7
M  V30 6 1 6 8
M  V30 7 1 6 9
M  V30 8 1 6 10
M  V30 9 1 11 12
M  V30 10 1 11 13
M  V30 11 1 11 14
M  V30 12 1 11 15
M  V30 13 1 16 17
M  V30 14 1 16 18
M  V30 15 1 16 19
M  V30 16 1 16 20
M  V30 17 1 21 22
M  V30 18 1 21 23
M  V30 19 1 21 24
M  V30 20 1 21 25
M  V30 21 1 26 27
M  V30 22 1 26 28
M  V30 23 1 26 29
M  V30 24 1 26 30
M  V30 25 1 31 32
M  V30 26 1 31 33
M  V30 27 1 31 34
M  V30 28 1 31 35
M  V30 29 1 36 37
M  V30 30 1 36 38
M  V30 31 1 36 39
M  V30 32 1 36 40
M  V30 33 1 41 42
M  V30 34 1 41 43
M  V30 35 1 41 44
M  V30 36 1 41 45
M  V30 37 1 46 47
M  V30 38 1 47 48
M  V30 39 1 49 50
M  V30 40 1 50 51
M  V30 41 1 52 53
M  V30 42 1 53 54
M  V30 43 1 55 56
M  V30 44 1 56 57
M  V30 45 1 58 59
M  V30 46 1 59 60
M  V30 47 1 61 62
M  V30 48 1 62 63
M  V30 49 1 64 65
M  V30 50 1 65 66
M  V30 51 1 67 68
M  V30 52 1 68 69
M  V30 53 1 70 71
M  V30 54 1 71 72
M  V30 55 1 73 74
M  V30 56 1 74 75
M  V30 57 1 76 77
M  V30 58 1 77 78
M  V30 59 1 79 80
M  V30 60 1 80 81
M  V30 61 1 82 83
M  V30 62 1 83 84
M  V30 63 1 85 86
M  V30 64 1 86 87
M  V30 65 1 88 89
M  V30 66 1 89 90
M  V30 67 1 91 92
M  V30 68 1 92 93
M  V30 69 1 94 95
M  V30 70 1 95 96
M  V30 71 1 97 98
M  V30 72 1 98 99
M  V30 73 1 2 82
M  V30 74 1 3 94
M  V30 75 1 4 70
M  V30 76 1 5 73
M  V30 77 1 7 46
M  V30 78 1 8 55
M  V30 79 1 9 67
M  V30 80 1 10 52
M  V30 81 1 12 58
M  V30 82 1 13 97
M  V30 83 1 14 64
M  V30 84 1 15 91
M  V30 85 1 17 66
M  V30 86 1 18 49
M  V30 87 1 19 88
M  V30 88 1 20 61
M  V30 89 1 22 48
M  V30 90 1 23 99
M  V30 91 1 24 90
M  V30 92 1 25 85
M  V30 93 1 27 51
M  V30 94 1 28 79
M  V30 95 1 29 72
M  V30 96 1 30 63
M  V30 97 1 32 84
M  V30 98 1 33 81
M  V30 99 1 34 93
M  V30 100 1 35 60
M  V30 101 1 37 87
M  V30 102 1 38 76
M  V30 103 1 39 69
M  V30 104 1 40 75
M  V30 105 1 42 57
M  V30 106 1 43 96
M  V30 107 1 44 78
M  V30 108 1 45 54
M  V30 END BOND
M  V30 END CTAB
M  END

$$$$
