
     RDKit          3D

  0  0  0  0  0  0  0  0  0  0999 V3000
M  V30 BEGIN CTAB
M  V30 COUNTS 99 108 0 0 0
M  V30 BEGIN ATOM
M  V30 1 Pd 4.2509 1.3826 1.5330 0
M  V30 2 Pb 4.3540 2.2579 1.0642 0
M  V30 3 Pb 3.7077 1.0971 0.7495 0
M  V30 4 Pb 4.8104 1.7006 2.3034 0
M  V30 5 Pb 4.0839 0.4842 1.9458 0
M  V30 6 Pd -2.3510 -6.4594 -6.0922 0
M  V30 7 Pb -3.1181 -6.1543 -5.5268 0
M  V30 8 Pb -1.5161 -6.7076 -6.5766 0
M  V30 9 Pb -2.1600 -7.2168 -5.4767 0
M  V30 10 Pb -2.3338 -5.5925 -6.5862 0
M  V30 11 Pd -4.1369 3.9209 0.1911 0
M  V30 12 Pb -3.4932 4.4385 -0.4079 0
M  V30 13 Pb -4.0477 3.0920 -0.3689 0
M  V30 14 Pb -4.7231 3.4318 0.8370 0
M  V30 15 Pb -4.3076 4.7558 0.7006 0
M  V30 16 Pd -3.0210 1.4419 4.8180 0
M  V30 17 Pb -3.8620 1.6773 4.3267 0
M  V30 18 Pb -2.8465 2.3858 5.1014 0
M  V30 19 Pb -3.0871 0.5030 4.4945 0
M  V30 20 Pb -2.1767 1.1987 5.2896 0
M  V30 21 Pd -3.2820 -3.7962 -1.0423 0
M  V30 22 Pb -3.6114 -4.2217 -1.8934 0
M  V30 23 Pb -3.5194 -2.8864 -1.3910 0
M  V30 24 Pb -3.1108 -3.4187 -0.1360 0
M  V30 25 Pb -2.9561 -4.6582 -0.6515 0
M  V30 26 Pd 3.3173 4.6111 5.5912 0
M  V30 27 Pb 2.3876 4.9396 5.7718 0
M  V30 28 Pb 3.5405 5.4896 5.1713 0
M  V30 29 Pb 4.1944 4.2095 5.3274 0
M  V30 30 Pb 3.0267 3.7314 5.9560 0
M  V30 31 Pd 0.4658 7.6744 -0.0405 0
M  V30 32 Pb 1.2310 7.1283 -0.3763 0
M  V30 33 Pb 1.1249 8.0935 0.5808 0
M  V30 34 Pb -0.2736 8.1965 0.3678 0
M  V30 35 Pb -0.2145 7.1449 -0.5850 0
M  V30 36 Pd 1.6953 -5.6293 -0.2911 0
M  V30 37 Pb 0.8048 -5.8121 0.1337 0
M  V30 38 Pb 2.5645 -5.4584 -0.7662 0
M  V30 39 Pb 1.4094 -6.3367 -0.9372 0
M  V30 40 Pb 1.9717 -4.9585 0.4051 0
M  V30 41 Pd 3.1122 -3.0868 -4.7858 0
M  V30 42 Pb 3.2021 -3.8805 -5.3815 0
M  V30 43 Pb 2.9246 -2.3201 -4.1790 0
M  V30 44 Pb 3.6916 -3.5153 -4.0901 0
M  V30 45 Pb 2.4275 -2.7401 -5.4292 0
M  V30 46 Ag 4.3520 2.8807 0.6485 0
M  V30 47 Fe 3.1561 4.8284 0.0080 0
M  V30 48 Ag 1.8495 6.7355 -0.5299 0
M  V30 49 Ag -3.0589 -0.1953 4.2347 0
M  V30 50 Fe -3.0674 -1.6775 2.3839 0
M  V30 51 Ag -3.0617 -3.2195 0.5827 0
M  V30 52 Ag -2.5852 3.0570 5.3153 0
M  V30 53 Fe -0.5353 4.2176 5.6375 0
M  V30 54 Ag 1.6590 5.1054 5.8615 0
M  V30 55 Ag -4.3555 5.4262 1.0103 0
M  V30 56 Fe -2.9004 7.2744 1.1024 0
M  V30 57 Ag -0.8927 8.4325 0.6945 0
M  V30 58 Ag -2.1272 -4.9274 -6.8590 0
M  V30 59 Fe -0.2209 -3.5484 -6.5423 0
M  V30 60 Ag 1.8456 -2.5854 -5.8782 0
M  V30 61 Ag -0.8268 -6.8096 -6.8417 0
M  V30 62 Fe 1.3030 -5.8247 -6.5259 0
M  V30 63 Ag 3.1151 -4.4695 -5.8296 0
M  V30 64 Ag -1.5222 1.0639 5.6233 0
M  V30 65 Fe 0.6474 1.9397 5.9995 0
M  V30 66 Ag 2.7080 3.0957 6.1787 0
M  V30 67 Ag -1.8440 -7.6716 -4.9782 0
M  V30 68 Fe -0.3715 -7.4392 -3.1326 0
M  V30 69 Ag 1.0924 -6.8761 -1.3517 0
M  V30 70 Ag 3.9002 -0.2044 2.1895 0
M  V30 71 Fe 3.0623 -2.3492 1.5866 0
M  V30 72 Ag 2.2188 -4.4767 0.9322 0
M  V30 73 Ag 3.3176 0.9161 0.1408 0
M  V30 74 Fe 3.0373 -0.4339 -1.7868 0
M  V30 75 Ag 2.7259 -1.7635 -3.7239 0
M  V30 76 Ag 3.6147 6.1429 4.8132 0
M  V30 77 Fe 2.7400 7.3727 2.9823 0
M  V30 78 Ag 1.6394 8.2845 1.0886 0
M  V30 79 Ag -4.0404 2.4821 -0.8129 0
M  V30 80 Fe -3.8399 0.1433 -1.2009 0
M  V30 81 Ag -3.6467 -2.1872 -1.6399 0
M  V30 82 Ba -3.6736 -5.9082 -5.0857 0
M  V30 83 Ga -3.7632 -5.2148 -3.7806 0
M  V30 84 Ba -3.9696 -4.5242 -2.4878 0
M  V30 85 Ba -2.6624 -5.2320 -0.2639 0
M  V30 86 Ga -1.2739 -5.6371 0.0512 0
M  V30 87 Ba 0.1191 -6.0305 0.3605 0
M  V30 88 Ba -3.0226 4.8315 -0.8738 0
M  V30 89 Ga -1.8672 5.7866 -0.8603 0
M  V30 90 Ba -0.7181 6.7389 -1.0020 0
M  V30 91 Ba -5.1409 3.0913 1.3588 0
M  V30 92 Ga -4.8244 2.4525 2.6520 0
M  V30 93 Ba -4.4939 1.8173 3.9435 0
M  V30 94 Ba 5.2425 1.9696 2.8596 0
M  V30 95 Ga 5.0459 2.9081 3.9849 0
M  V30 96 Ba 4.8125 3.8495 5.1005 0
M  V30 97 Ba 3.2217 -5.3114 -1.1082 0
M  V30 98 Ga 3.6548 -4.5922 -2.3275 0
M  V30 99 Ba 4.0754 -3.8709 -3.5499 0
M  V30 END ATOM
M  V30 BEGIN BOND
M  V30 1 1 1 2
M  V30 2 1 1 3
M  V30 3 1 1 4
M  V30 4 1 1 5
M  V30 5 1 6 7
M  V30 6 1 6 8
M  V30 7 1 6 9
M  V30 8 1 6 10
M  V30 9 1 11 12
M  V30 10 1 11 13
M  V30 11 1 11 14
M  V30 12 1 11 15
M  V30 13 1 16 17
M  V30 14 1 16 18
M  V30 15 1 16 19
M  V30 16 1 16 20
M  V30 17 1 21 22
M  V30 18 1 21 23
M  V30 19 1 21 24
M  V30 20 1 21 25
M  V30 21 1 26 27
M  V30 22 1 26 28
M  V30 23 1 26 29
M  V30 24 1 26 30
M  V30 25 1 31 32
M  V30 26 1 31 33
M  V30 27 1 31 34
M  V30 28 1 31 35
M  V30 29 1 36 37
M  V30 30 1 36 38
M  V30 31 1 36 39
M  V30 32 1 36 40
M  V30 33 1 41 42
M  V30 34 1 41 43
M  V30 35 1 41 44
M  V30 36 1 41 45
M  V30 37 1 46 47
M  V30 38 1 47 48
M  V30 39 1 49 50
M  V30 40 1 50 51
M  V30 41 1 52 53
M  V30 42 1 53 54
M  V30 43 1 55 56
M  V30 44 1 56 57
M  V30 45 1 58 59
M  V30 46 1 59 60
M  V30 47 1 61 62
M  V30 48 1 62 63
M  V30 49 1 64 65
M  V30 50 1 65 66
M  V30 51 1 67 68
M  V30 52 1 68 69
M  V30 53 1 70 71
M  V30 54 1 71 72
M  V30 55 1 73 74
M  V30 56 1 74 75
M  V30 57 1 76 77
M  V30 58 1 77 78
M  V30 59 1 79 80
M  V30 60 1 80 81
M  V30 61 1 82 83
M  V30 62 1 83 84
M  V30 63 1 85 86
M  V30 64 1 86 87
M  V30 65 1 88 89
M  V30 66 1 89 90
M  V30 67 1 91 92
M  V30 68 1 92 93
M  V30 69 1 94 95
M  V30 70 1 95 96
M  V30 71 1 97 98
M  V30 72 1 98 99
M  V30 73 1 2 46
M  V30 74 1 3 73
M  V30 75 1 4 94
M  V30 76 1 5 70
M  V30 77 1 7 82
M  V30 78 1 8 61
M  V30 79 1 9 67
M  V30 80 1 10 58
M  V30 81 1 12 88
M  V30 82 1 13 79
M  V30 83 1 14 91
M  V30 84 1 15 55
M  V30 85 1 17 93
M  V30 86 1 18 52
M  V30 87 1 19 49
M  V30 88 1 20 64
M  V30 89 1 22 84
M  V30 90 1 23 81
M  V30 91 1 24 51
M  V30 92 1 25 85
M  V30 93 1 27 54
M  V30 94 1 28 76
M  V30 95 1 29 96
M  V30 96 1 30 66
M  V30 97 1 32 48
M  V30 98 1 33 78
M  V30 99 1 34 57
M  V30 100 1 35 90
M  V30 101 1 37 87
M  V30 102 1 38 97
M  V30 103 1 39 69
M  V30 104 1 40 72
M  V30 105 1 42 63
M  V30 106 1 43 75
M  V30 107 1 44 99
M  V30 108 1 45 60
M  V30 END BOND
M  V30 END CTAB
M  END

$$$$
