
     RDKit          3D

  0  0  0  0  0  0  0  0  0  0999 V3000
M  V30 BEGIN CTAB
M  V30 COUNTS 99 108 0 0 0
M  V30 BEGIN ATOM
M  V30 1 Pd 3.2842 2.3155 -1.3935 0
M  V30 2 Pb 3.0855 2.8988 -0.6041 0
M  V30 3 Pb 2.8004 2.9647 -1.9857 0
M  V30 4 Pb 3.9441 1.7873 -0.8528 0
M  V30 5 Pb 3.4091 1.7009 -2.1743 0
M  V30 6 Pd 5.2332 -2.4431 1.4757 0
M  V30 7 Pb 4.9338 -3.3417 1.8292 0
M  V30 8 Pb 4.9969 -2.7504 0.5578 0
M  V30 9 Pb 5.4796 -1.5350 1.1397 0
M  V30 10 Pb 5.4259 -2.1533 2.4129 0
M  V30 11 Pd 0.5587 -5.6449 2.3502 0
M  V30 12 Pb -0.4179 -5.5335 2.1764 0
M  V30 13 Pb 0.7197 -5.7448 1.3719 0
M  V30 14 Pb 0.4323 -5.4727 3.3273 0
M  V30 15 Pb 1.5582 -5.6724 2.4909 0
M  V30 16 Pd 0.0424 2.5220 3.4291 0
M  V30 17 Pb 0.5330 2.9796 4.1703 0
M  V30 18 Pb -0.4171 1.9561 2.7421 0
M  V30 19 Pb -0.5774 2.1396 4.1160 0
M  V30 20 Pb 0.6729 2.9537 2.7749 0
M  V30 21 Pd -4.2446 -2.7465 -2.8152 0
M  V30 22 Pb -4.4110 -2.3738 -3.7276 0
M  V30 23 Pb -4.9129 -2.1162 -2.4178 0
M  V30 24 Pb -4.1093 -3.1690 -1.9189 0
M  V30 25 Pb -3.5318 -3.3295 -3.2102 0
M  V30 26 Pd 1.4626 -0.0717 7.2421 0
M  V30 27 Pb 0.4952 0.1642 7.2010 0
M  V30 28 Pb 1.6778 0.9036 7.1778 0
M  V30 29 Pb 1.2221 -1.0427 7.2286 0
M  V30 30 Pb 2.4277 -0.3022 7.1353 0
M  V30 31 Pd -1.4607 5.1290 -3.4488 0
M  V30 32 Pb -1.4493 5.3198 -2.4712 0
M  V30 33 Pb -1.4623 4.8413 -4.4035 0
M  V30 34 Pb -2.4619 5.1265 -3.4139 0
M  V30 35 Pb -0.4627 5.0872 -3.4690 0
M  V30 36 Pd -0.8495 -1.4079 -6.3566 0
M  V30 37 Pb -0.8586 -0.4867 -6.7400 0
M  V30 38 Pb -0.8896 -2.3050 -5.9148 0
M  V30 39 Pb 0.1192 -1.3032 -6.1271 0
M  V30 40 Pb -1.8350 -1.4578 -6.5028 0
M  V30 41 Pd -4.0694 2.2831 -0.4266 0
M  V30 42 Pb -3.5010 1.6426 0.0854 0
M  V30 43 Pb -4.5426 2.9294 -1.0239 0
M  V30 44 Pb -3.4569 3.0238 -0.1519 0
M  V30 45 Pb -4.7155 1.5571 -0.6782 0
M  V30 46 Ag -1.1333 -5.3999 2.0022 0
M  V30 47 Fe -2.6141 -4.4667 0.3983 0
M  V30 48 Ag -4.0225 -3.5106 -1.2567 0
M  V30 49 Ag 3.4452 1.2294 -2.7584 0
M  V30 50 Fe 2.2112 -0.0058 -4.3709 0
M  V30 51 Ag 0.8265 -1.1727 -5.9103 0
M  V30 52 Ag 5.5194 -1.9528 3.1292 0
M  V30 53 Fe 4.4395 -1.2124 5.1090 0
M  V30 54 Ag 3.1304 -0.4757 6.9466 0
M  V30 55 Ag -1.4179 4.5380 -5.0845 0
M  V30 56 Fe -1.1646 2.4472 -6.1740 0
M  V30 57 Ag -0.9091 0.2253 -6.9622 0
M  V30 58 Ag 4.6926 -3.0756 -0.0365 0
M  V30 59 Fe 2.8126 -4.4936 -0.1804 0
M  V30 60 Ag 0.9726 -5.6968 0.6753 0
M  V30 61 Ag 0.3814 -5.2938 4.0541 0
M  V30 62 Fe 0.6775 -3.5818 5.6739 0
M  V30 63 Ag 1.0231 -1.7633 7.1626 0
M  V30 64 Ba -1.4774 5.3799 -1.7284 0
M  V30 65 Ga -2.2210 4.5258 -0.7894 0
M  V30 66 Ba -3.0117 3.5975 0.0339 0
M  V30 67 Ba 0.9122 3.2408 4.7620 0
M  V30 68 Ga 1.3862 2.5016 5.9478 0
M  V30 69 Ba 1.7968 1.6372 7.0710 0
M  V30 70 Ba 2.5638 3.5088 -2.4504 0
M  V30 71 Ga 1.3753 4.2356 -2.9399 0
M  V30 72 Ba 0.2835 5.0451 -3.5180 0
M  V30 73 Ba -0.7692 1.4489 2.3122 0
M  V30 74 Ga -1.8994 1.3482 1.3691 0
M  V30 75 Ba -3.0156 1.1808 0.4183 0
M  V30 76 Ba -1.0152 1.8689 4.6629 0
M  V30 77 Ga -0.6884 1.1150 5.8857 0
M  V30 78 Ba -0.2097 0.3655 7.0599 0
M  V30 79 Ba -5.3991 -1.6313 -2.1139 0
M  V30 80 Ga -5.2932 -0.2969 -1.4865 0
M  V30 81 Ba -5.2328 1.0371 -0.8525 0
M  V30 82 Ba 4.7241 -4.0183 2.1068 0
M  V30 83 Ga 3.4902 -4.8203 2.3282 0
M  V30 84 Ba 2.3116 -5.6914 2.5869 0
M  V30 85 Ba 2.9100 3.3452 -0.0256 0
M  V30 86 Ga 2.0201 3.2896 1.1558 0
M  V30 87 Ba 1.1691 3.3505 2.3650 0
M  V30 88 Ba -3.2098 5.0981 -3.3417 0
M  V30 89 Ga -4.0671 4.2913 -2.4511 0
M  V30 90 Ba -4.8123 3.4298 -1.5123 0
M  V30 91 Ba -2.9768 -3.7284 -3.5240 0
M  V30 92 Ga -1.9598 -3.3839 -4.5388 0
M  V30 93 Ba -0.9775 -2.9597 -5.5575 0
M  V30 94 Ba 4.5326 1.4887 -0.4884 0
M  V30 95 Ga 5.0324 0.2837 0.2039 0
M  V30 96 Ba 5.6652 -0.8437 0.9188 0
M  V30 97 Ba -4.5183 -2.1361 -4.4304 0
M  V30 98 Ga -3.5859 -1.7942 -5.5180 0
M  V30 99 Ba -2.5813 -1.4696 -6.5449 0
M  V30 END ATOM
M  V30 BEGIN BOND
M  V30 1 1 1 2
M  V30 2 1 1 3
M  V30 3 1 1 4
M  V30 4 1 1 5
M  V30 5 1 6 7
M  V30 6 1 6 8
M  V30 7 1 6 9
M  V30 8 1 6 10
M  V30 9 1 11 12
M  V30 10 1 11 13
M  V30 11 1 11 14
M  V30 12 1 11 15
M  V30 13 1 16 17
M  V30 14 1 16 18
M  V30 15 1 16 19
M  V30 16 1 16 20
M  V30 17 1 21 22
M  V30 18 1 21 23
M  V30 19 1 21 24
M  V30 20 1 21 25
M  V30 21 1 26 27
M  V30 22 1 26 28
M  V30 23 1 26 29
M  V30 24 1 26 30
M  V30 25 1 31 32
M  V30 26 1 31 33
M  V30 27 1 31 34
M  V30 28 1 31 35
M  V30 29 1 36 37
M  V30 30 1 36 38
M  V30 31 1 36 39
M  V30 32 1 36 40
M  V30 33 1 41 42
M  V30 34 1 41 43
M  V30 35 1 41 44
M  V30 36 1 41 45
M  V30 37 1 46 47
M  V30 38 1 47 48
M  V30 39 1 49 50
M  V30 40 1 50 51
M  V30 41 1 52 53
M  V30 42 1 53 54
M  V30 43 1 55 56
M  V30 44 1 56 57
M  V30 45 1 58 59
M  V30 46 1 59 60
M  V30 47 1 61 62
M  V30 48 1 62 63
M  V30 49 1 64 65
M  V30 50 1 65 66
M  V30 51 1 67 68
M  V30 52 1 68 69
M  V30 53 1 70 71
M  V30 54 1 71 72
M  V30 55 1 73 74
M  V30 56 1 74 75
M  V30 57 1 76 77
M  V30 58 1 77 78
M  V30 59 1 79 80
M  V30 60 1 80 81
M  V30 61 1 82 83
M  V30 62 1 83 84
M  V30 63 1 85 86
M  V30 64 1 86 87
M  V30 65 1 88 89
M  V30 66 1 89 90
M  V30 67 1 91 92
M  V30 68 1 92 93
M  V30 69 1 94 95
M  V30 70 1 95 96
M  V30 71 1 97 98
M  V30 72 1 98 99
M  V30 73 1 2 85
M  V30 74 1 3 70
M  V30 75 1 4 94
M  V30 76 1 5 49
M  V30 77 1 7 82
M  V30 78 1 8 58
M  V30 79 1 9 96
M  V30 80 1 10 52
M  V30 81 1 12 46
M  V30 82 1 13 60
M  V30 83 1 14 61
M  V30 84 1 15 84
M  V30 85 1 17 67
M  V30 86 1 18 73
M  V30 87 1 19 76
M  V30 88 1 20 87
M  V30 89 1 22 97
M  V30 90 1 23 79
M  V30 91 1 24 48
M  V30 92 1 25 91
M  V30 93 1 27 78
M  V30 94 1 28 69
M  V30 95 1 29 63
M  V30 96 1 30 54
M  V30 97 1 32 64
M  V30 98 1 33 55
M  V30 99 1 34 88
M  V30 100 1 35 72
M  V30 101 1 37 57
M  V30 102 1 38 93
M  V30 103 1 39 51
M  V30 104 1 40 99
M  V30 105 1 42 75
M  V30 106 1 43 90
M  V30 107 1 44 66
M  V30 108 1 45 81
M  V30 END BOND
M  V30 END CTAB
M  END

$$$$
