
     RDKit          3D

  0  0  0  0  0  0  0  0  0  0999 V3000
M  V30 BEGIN CTAB
M  V30 COUNTS 99 108 0 0 0
M  V30 BEGIN ATOM
M  V30 1 Pd -0.0032 1.0062 -4.5527 0
M  V30 2 Pb -0.6197 1.7915 -4.4439 0
M  V30 3 Pb 0.6605 0.2786 -4.7456 0
M  V30 4 Pb 0.7849 1.5935 -4.3814 0
M  V30 5 Pb -0.8087 0.4249 -4.7032 0
M  V30 6 Pd 1.7099 -6.9915 -1.6018 0
M  V30 7 Pb 1.6891 -6.3505 -0.8334 0
M  V30 8 Pb 1.7698 -7.6476 -2.3548 0
M  V30 9 Pb 0.7114 -7.0832 -1.5867 0
M  V30 10 Pb 2.7008 -6.8604 -1.6795 0
M  V30 11 Pd -4.6574 3.8508 5.2637 0
M  V30 12 Pb -4.2990 4.7106 4.9046 0
M  V30 13 Pb -4.9017 2.9328 5.5673 0
M  V30 14 Pb -4.2067 4.0111 6.1397 0
M  V30 15 Pb -4.9870 3.6543 4.3401 0
M  V30 16 Pd 2.2294 3.2272 6.8560 0
M  V30 17 Pb 1.4463 3.4428 7.4370 0
M  V30 18 Pb 2.2554 4.1724 6.5300 0
M  V30 19 Pb 2.1387 2.2569 7.0840 0
M  V30 20 Pb 2.9529 3.0347 6.1938 0
M  V30 21 Pd -1.4710 -2.6425 4.1947 0
M  V30 22 Pb -0.7074 -3.0102 3.6634 0
M  V30 23 Pb -2.2363 -2.2560 4.7078 0
M  V30 24 Pb -0.8455 -2.4234 4.9455 0
M  V30 25 Pb -2.0867 -2.7807 3.4195 0
M  V30 26 Pd 3.1769 5.8868 0.2670 0
M  V30 27 Pb 2.9552 6.3433 1.1288 0
M  V30 28 Pb 2.5963 6.4954 -0.2754 0
M  V30 29 Pb 3.3749 5.3934 -0.5760 0
M  V30 30 Pb 3.7052 5.2361 0.8133 0
M  V30 31 Pd -1.9388 5.4712 -1.2498 0
M  V30 32 Pb -1.9388 5.0116 -2.1422 0
M  V30 33 Pb -1.1845 6.0773 -1.5108 0
M  V30 34 Pb -2.7036 4.9036 -0.9419 0
M  V30 35 Pb -1.9973 5.9338 -0.3654 0
M  V30 36 Pd -2.6143 -3.9908 -3.3599 0
M  V30 37 Pb -2.9926 -3.7031 -2.4812 0
M  V30 38 Pb -2.2508 -4.2891 -4.2388 0
M  V30 39 Pb -2.4334 -4.8891 -2.9484 0
M  V30 40 Pb -2.7735 -3.0926 -3.7755 0
M  V30 41 Pd 3.6650 -5.8574 -5.7514 0
M  V30 42 Pb 3.4454 -6.8234 -5.6434 0
M  V30 43 Pb 3.7653 -4.8635 -5.7661 0
M  V30 44 Pb 2.8973 -5.7695 -6.3761 0
M  V30 45 Pb 4.3152 -5.9422 -4.9983 0
M  V30 46 Ag 1.7213 -5.8777 -0.2509 0
M  V30 47 Fe 0.7528 -4.5884 1.4938 0
M  V30 48 Ag -0.1291 -3.2701 3.2623 0
M  V30 49 Ag -2.5513 -2.8306 2.8334 0
M  V30 50 Fe -2.9180 -3.1829 0.5142 0
M  V30 51 Ag -3.2729 -3.5378 -1.8065 0
M  V30 52 Ag 2.0180 1.5245 7.1986 0
M  V30 53 Fe 0.8609 -0.3963 6.4115 0
M  V30 54 Ag -0.3705 -2.2060 5.4859 0
M  V30 55 Ag 2.2653 4.8410 6.1901 0
M  V30 56 Fe 2.5203 5.8652 4.0623 0
M  V30 57 Ag 2.8166 6.5954 1.8216 0
M  V30 58 Ag -5.1327 3.5300 3.6146 0
M  V30 59 Fe -4.3083 3.9558 1.4274 0
M  V30 60 Ag -3.2760 4.5264 -0.6351 0
M  V30 61 Ag -3.9776 5.2888 4.5549 0
M  V30 62 Fe -3.0102 5.9015 2.4756 0
M  V30 63 Ag -2.1077 6.2461 0.3072 0
M  V30 64 Ag 3.4427 2.9675 5.6305 0
M  V30 65 Fe 3.8741 3.7751 3.4392 0
M  V30 66 Ag 4.0405 4.7562 1.2828 0
M  V30 67 Ag -3.7781 4.0874 6.7477 0
M  V30 68 Fe -1.5182 3.8945 7.4430 0
M  V30 69 Ag 0.8112 3.6137 7.7941 0
M  V30 70 Ag 1.3854 2.0133 -4.2327 0
M  V30 71 Fe 2.4795 3.5209 -2.7651 0
M  V30 72 Ag 3.4658 5.0235 -1.2181 0
M  V30 73 Ag -1.9496 -4.4867 -4.8927 0
M  V30 74 Fe 0.0529 -5.1044 -5.9953 0
M  V30 75 Ag 2.2357 -5.6866 -6.7030 0
M  V30 76 Ag 1.2436 -0.1657 -4.9226 0
M  V30 77 Fe 2.4646 -2.1657 -5.3250 0
M  V30 78 Ag 3.7607 -4.1141 -5.7462 0
M  V30 79 Ag -4.9869 2.2160 5.7604 0
M  V30 80 Fe -3.9905 0.0806 5.4839 0
M  V30 81 Ag -2.8153 -1.9366 5.0599 0
M  V30 82 Ba -1.0765 2.3916 -4.4393 0
M  V30 83 Ga -1.4971 3.5151 -3.5728 0
M  V30 84 Ba -2.0036 4.6825 -2.8172 0
M  V30 85 Ba 3.4349 -6.7476 -1.8004 0
M  V30 86 Ga 4.1470 -6.3903 -3.0434 0
M  V30 87 Ba 4.7025 -6.0346 -4.3640 0
M  V30 88 Ba 1.8744 -8.1212 -2.9274 0
M  V30 89 Ga 2.5278 -7.9035 -4.2289 0
M  V30 90 Ba 3.2035 -7.5094 -5.4760 0
M  V30 91 Ba -0.0381 -7.1527 -1.6068 0
M  V30 92 Ga -1.1650 -6.3394 -2.1159 0
M  V30 93 Ba -2.3173 -5.5550 -2.6132 0
M  V30 94 Ba -1.4605 0.0590 -4.8078 0
M  V30 95 Ga -2.1321 -1.2084 -4.4446 0
M  V30 96 Ba -2.8890 -2.4419 -4.1356 0
M  V30 97 Ba 2.1525 6.9010 -0.7255 0
M  V30 98 Ga 0.7611 6.7409 -1.1967 0
M  V30 99 Ba -0.6315 6.5658 -1.6586 0
M  V30 END ATOM
M  V30 BEGIN BOND
M  V30 1 1 1 2
M  V30 2 1 1 3
M  V30 3 1 1 4
M  V30 4 1 1 5
M  V30 5 1 6 7
M  V30 6 1 6 8
M  V30 7 1 6 9
M  V30 8 1 6 10
M  V30 9 1 11 12
M  V30 10 1 11 13
M  V30 11 1 11 14
M  V30 12 1 11 15
M  V30 13 1 16 17
M  V30 14 1 16 18
M  V30 15 1 16 19
M  V30 16 1 16 20
M  V30 17 1 21 22
M  V30 18 1 21 23
M  V30 19 1 21 24
M  V30 20 1 21 25
M  V30 21 1 26 27
M  V30 22 1 26 28
M  V30 23 1 26 29
M  V30 24 1 26 30
M  V30 25 1 31 32
M  V30 26 1 31 33
M  V30 27 1 31 34
M  V30 28 1 31 35
M  V30 29 1 36 37
M  V30 30 1 36 38
M  V30 31 1 36 39
M  V30 32 1 36 40
M  V30 33 1 41 42
M  V30 34 1 41 43
M  V30 35 1 41 44
M  V30 36 1 41 45
M  V30 37 1 46 47
M  V30 38 1 47 48
M  V30 39 1 49 50
M  V30 40 1 50 51
M  V30 41 1 52 53
M  V30 42 1 53 54
M  V30 43 1 55 56
M  V30 44 1 56 57
M  V30 45 1 58 59
M  V30 46 1 59 60
M  V30 47 1 61 62
M  V30 48 1 62 63
M  V30 49 1 64 65
M  V30 50 1 65 66
M  V30 51 1 67 68
M  V30 52 1 68 69
M  V30 53 1 70 71
M  V30 54 1 71 72
M  V30 55 1 73 74
M  V30 56 1 74 75
M  V30 57 1 76 77
M  V30 58 1 77 78
M  V30 59 1 79 80
M  V30 60 1 80 81
M  V30 61 1 82 83
M  V30 62 1 83 84
M  V30 63 1 85 86
M  V30 64 1 86 87
M  V30 65 1 88 89
M  V30 66 1 89 90
M  V30 67 1 91 92
M  V30 68 1 92 93
M  V30 69 1 94 95
M  V30 70 1 95 96
M  V30 71 1 97 98
M  V30 72 1 98 99
M  V30 73 1 2 82
M  V30 74 1 3 76
M  V30 75 1 4 70
M  V30 76 1 5 94
M  V30 77 1 7 46
M  V30 78 1 8 88
M  V30 79 1 9 91
M  V30 80 1 10 85
M  V30 81 1 12 61
M  V30 82 1 13 79
M  V30 83 1 14 67
M  V30 84 1 15 58
M  V30 85 1 17 69
M  V30 86 1 18 55
M  V30 87 1 19 52
M  V30 88 1 20 64
M  V30 89 1 22 48
M  V30 90 1 23 81
M  V30 91 1 24 54
M  V30 92 1 25 49
M  V30 93 1 27 57
M  V30 94 1 28 97
M  V30 95 1 29 72
M  V30 96 1 30 66
M  V30 97 1 32 84
M  V30 98 1 33 99
M  V30 99 1 34 60
M  V30 100 1 35 63
M  V30 101 1 37 51
M  V30 102 1 38 73
M  V30 103 1 39 93
M  V30 104 1 40 96
M  V30 105 1 42 90
M  V30 106 1 43 78
M  V30 107 1 44 75
M  V30 108 1 45 87
M  V30 END BOND
M  V30 END CTAB
M  END

$$$$
