
     RDKit          3D

  0  0  0  0  0  0  0  0  0  0999 V3000
M  V30 BEGIN CTAB
M  V30 COUNTS 99 108 0 0 0
M  V30 BEGIN ATOM
M  V30 1 Pd -3.0170 2.3495 1.9896 0
M  V30 2 Pb -2.7141 3.0526 2.6343 0
M  V30 3 Pb -2.3098 1.7511 2.3708 0
M  V30 4 Pb -3.6529 2.9814 1.5448 0
M  V30 5 Pb -3.3138 1.6506 1.3364 0
M  V30 6 Pd 0.7290 -5.9968 5.0975 0
M  V30 7 Pb 1.3426 -6.1059 4.3126 0
M  V30 8 Pb 1.2989 -5.2628 5.4695 0
M  V30 9 Pb 0.0798 -6.6375 4.6894 0
M  V30 10 Pb 0.1042 -5.8587 5.8656 0
M  V30 11 Pd 4.8306 0.7564 -2.3360 0
M  V30 12 Pb 4.6419 1.7351 -2.3368 0
M  V30 13 Pb 5.0638 -0.2187 -2.3062 0
M  V30 14 Pb 5.0920 0.8166 -3.3008 0
M  V30 15 Pb 4.5361 0.7541 -1.3763 0
M  V30 16 Pd 1.9506 1.9083 -6.6148 0
M  V30 17 Pb 2.9394 1.7989 -6.4990 0
M  V30 18 Pb 1.9957 2.9069 -6.5619 0
M  V30 19 Pb 1.8748 0.9133 -6.6299 0
M  V30 20 Pb 0.9587 2.0173 -6.6893 0
M  V30 21 Pd 2.5756 -4.4526 -2.3618 0
M  V30 22 Pb 2.7395 -4.8883 -1.4735 0
M  V30 23 Pb 3.4647 -3.9948 -2.3032 0
M  V30 24 Pb 2.4116 -4.0310 -3.2526 0
M  V30 25 Pb 1.6853 -4.9015 -2.4385 0
M  V30 26 Pd -2.6321 6.6537 -3.8380 0
M  V30 27 Pb -1.7929 6.8051 -4.3614 0
M  V30 28 Pb -2.3608 7.3286 -3.1551 0
M  V30 29 Pb -3.3960 6.4066 -3.2419 0
M  V30 30 Pb -2.8232 5.8987 -4.4640 0
M  V30 31 Pd 1.1781 5.4625 1.9064 0
M  V30 32 Pb 0.5056 5.3428 2.6363 0
M  V30 33 Pb 0.7367 6.3149 1.6330 0
M  V30 34 Pb 1.6010 4.5699 2.0822 0
M  V30 35 Pb 1.7946 5.5473 1.1283 0
M  V30 36 Pd -4.4435 -4.9025 0.3267 0
M  V30 37 Pb -3.9273 -5.2734 -0.4424 0
M  V30 38 Pb -4.8518 -4.4767 1.1315 0
M  V30 39 Pb -4.2247 -5.7270 0.8465 0
M  V30 40 Pb -4.5452 -4.0230 -0.1338 0
M  V30 41 Pd -1.3051 -1.7486 5.8693 0
M  V30 42 Pb -0.3355 -1.8633 6.0914 0
M  V30 43 Pb -1.0650 -1.0794 5.1646 0
M  V30 44 Pb -2.2620 -1.7468 5.5855 0
M  V30 45 Pb -1.5102 -2.4833 6.5126 0
M  V30 46 Ag 1.7963 -6.1827 3.7176 0
M  V30 47 Fe 2.3227 -5.6923 1.4511 0
M  V30 48 Ag 2.8777 -5.2217 -0.8127 0
M  V30 49 Ag 1.0087 -5.2148 -2.5194 0
M  V30 50 Fe -1.2440 -5.4192 -1.7991 0
M  V30 51 Ag -3.4665 -5.5299 -0.9726 0
M  V30 52 Ag 1.8397 0.1665 -6.6067 0
M  V30 53 Fe 2.0496 -1.7964 -5.2892 0
M  V30 54 Ag 2.2736 -3.7229 -3.9214 0
M  V30 55 Ag 1.9268 3.6521 -6.4989 0
M  V30 56 Fe 0.4860 5.3486 -5.6667 0
M  V30 57 Ag -1.1415 6.8077 -4.7347 0
M  V30 58 Ag 4.2872 0.8379 -0.6693 0
M  V30 59 Fe 3.1242 2.2928 0.8124 0
M  V30 60 Ag 1.9380 3.8963 2.1110 0
M  V30 61 Ag 4.5024 2.4653 -2.2696 0
M  V30 62 Fe 3.4099 4.1033 -0.9500 0
M  V30 63 Ag 2.2314 5.5379 0.5235 0
M  V30 64 Ag 0.2240 2.1697 -6.7051 0
M  V30 65 Fe -1.4333 3.6628 -5.8899 0
M  V30 66 Ag -2.8487 5.3040 -4.9191 0
M  V30 67 Ag -0.4615 -7.0347 4.3570 0
M  V30 68 Fe -2.2594 -6.8307 2.8206 0
M  V30 69 Ag -3.9629 -6.2964 1.2564 0
M  V30 70 Ag -4.0836 3.4437 1.1391 0
M  V30 71 Fe -4.1217 4.8505 -0.7748 0
M  V30 72 Ag -3.8932 6.1897 -2.7237 0
M  V30 73 Ag -3.5614 1.1532 0.8300 0
M  V30 74 Fe -4.0819 -1.0672 0.1660 0
M  V30 75 Ag -4.5664 -3.3231 -0.3975 0
M  V30 76 Ag -5.0630 -4.0902 1.7359 0
M  V30 77 Fe -4.1702 -2.9183 3.5952 0
M  V30 78 Ag -2.9579 -1.8475 5.3304 0
M  V30 79 Ag -2.1236 7.7415 -2.5791 0
M  V30 80 Fe -0.8863 7.5205 -0.5681 0
M  V30 81 Ag 0.3917 6.9064 1.3328 0
M  V30 82 Ba -2.4525 3.5567 3.1256 0
M  V30 83 Ga -1.2524 4.4145 3.1595 0
M  V30 84 Ba -0.0383 5.2529 3.1444 0
M  V30 85 Ba -0.3644 -5.6982 6.4279 0
M  V30 86 Ga -1.0296 -4.4258 6.7540 0
M  V30 87 Ba -1.6148 -3.0877 6.9400 0
M  V30 88 Ba 1.6466 -4.6573 5.7467 0
M  V30 89 Ga 1.0853 -3.3173 6.0142 0
M  V30 90 Ba 0.3835 -2.0349 6.2273 0
M  V30 91 Ba 5.2678 0.9125 -4.0252 0
M  V30 92 Ga 4.4848 1.2895 -5.2202 0
M  V30 93 Ba 3.6723 1.6677 -6.3949 0
M  V30 94 Ba -1.7182 1.3666 2.6301 0
M  V30 95 Ga -1.3462 0.3641 3.6487 0
M  V30 96 Ba -0.8285 -0.6255 4.6148 0
M  V30 97 Ba 5.2811 -0.9389 -2.2732 0
M  V30 98 Ga 4.6742 -2.2866 -2.2726 0
M  V30 99 Ba 4.1388 -3.6642 -2.2666 0
M  V30 END ATOM
M  V30 BEGIN BOND
M  V30 1 1 1 2
M  V30 2 1 1 3
M  V30 3 1 1 4
M  V30 4 1 1 5
M  V30 5 1 6 7
M  V30 6 1 6 8
M  V30 7 1 6 9
M  V30 8 1 6 10
M  V30 9 1 11 12
M  V30 10 1 11 13
M  V30 11 1 11 14
M  V30 12 1 11 15
M  V30 13 1 16 17
M  V30 14 1 16 18
M  V30 15 1 16 19
M  V30 16 1 16 20
M  V30 17 1 21 22
M  V30 18 1 21 23
M  V30 19 1 21 24
M  V30 20 1 21 25
M  V30 21 1 26 27
M  V30 22 1 26 28
M  V30 23 1 26 29
M  V30 24 1 26 30
M  V30 25 1 31 32
M  V30 26 1 31 33
M  V30 27 1 31 34
M  V30 28 1 31 35
M  V30 29 1 36 37
M  V30 30 1 36 38
M  V30 31 1 36 39
M  V30 32 1 36 40
M  V30 33 1 41 42
M  V30 34 1 41 43
M  V30 35 1 41 44
M  V30 36 1 41 45
M  V30 37 1 46 47
M  V30 38 1 47 48
M  V30 39 1 49 50
M  V30 40 1 50 51
M  V30 41 1 52 53
M  V30 42 1 53 54
M  V30 43 1 55 56
M  V30 44 1 56 57
M  V30 45 1 58 59
M  V30 46 1 59 60
M  V30 47 1 61 62
M  V30 48 1 62 63
M  V30 49 1 64 65
M  V30 50 1 65 66
M  V30 51 1 67 68
M  V30 52 1 68 69
M  V30 53 1 70 71
M  V30 54 1 71 72
M  V30 55 1 73 74
M  V30 56 1 74 75
M  V30 57 1 76 77
M  V30 58 1 77 78
M  V30 59 1 79 80
M  V30 60 1 80 81
M  V30 61 1 82 83
M  V30 62 1 83 84
M  V30 63 1 85 86
M  V30 64 1 86 87
M  V30 65 1 88 89
M  V30 66 1 89 90
M  V30 67 1 91 92
M  V30 68 1 92 93
M  V30 69 1 94 95
M  V30 70 1 95 96
M  V30 71 1 97 98
M  V30 72 1 98 99
M  V30 73 1 2 82
M  V30 74 1 3 94
M  V30 75 1 4 70
M  V30 76 1 5 73
M  V30 77 1 7 46
M  V30 78 1 8 88
M  V30 79 1 9 67
M  V30 80 1 10 85
M  V30 81 1 12 61
M  V30 82 1 13 97
M  V30 83 1 14 91
M  V30 84 1 15 58
M  V30 85 1 17 93
M  V30 86 1 18 55
M  V30 87 1 19 52
M  V30 88 1 20 64
M  V30 89 1 22 48
M  V30 90 1 23 99
M  V30 91 1 24 54
M  V30 92 1 25 49
M  V30 93 1 27 57
M  V30 94 1 28 79
M  V30 95 1 29 72
M  V30 96 1 30 66
M  V30 97 1 32 84
M  V30 98 1 33 81
M  V30 99 1 34 60
M  V30 100 1 35 63
M  V30 101 1 37 51
M  V30 102 1 38 76
M  V30 103 1 39 69
M  V30 104 1 40 75
M  V30 105 1 42 90
M  V30 106 1 43 96
M  V30 107 1 44 78
M  V30 108 1 45 87
M  V30 END BOND
M  V30 END CTAB
M  END

$$$$
