
     RDKit          3D

  0  0  0  0  0  0  0  0  0  0999 V3000
M  V30 BEGIN CTAB
M  V30 COUNTS 99 108 0 0 0
M  V30 BEGIN ATOM
M  V30 1 Pd 0.4755 2.3510 -1.2984 0
M  V30 2 Pb 1.1264 3.0879 -1.4906 0
M  V30 3 Pb -0.2082 1.6569 -1.0773 0
M  V30 4 Pb -0.2801 2.8327 -1.7390 0
M  V30 5 Pb 1.2241 1.8280 -0.8883 0
M  V30 6 Pd 0.9234 -4.9376 -5.8497 0
M  V30 7 Pb 1.0838 -5.5478 -5.0744 0
M  V30 8 Pb -0.0616 -5.0492 -5.7109 0
M  V30 9 Pb 1.8925 -4.6947 -5.9355 0
M  V30 10 Pb 0.6975 -4.2929 -6.5769 0
M  V30 11 Pd 2.1832 0.4330 6.6681 0
M  V30 12 Pb 1.8670 1.3765 6.7636 0
M  V30 13 Pb 2.4708 -0.5087 6.5044 0
M  V30 14 Pb 1.3504 0.0657 7.0796 0
M  V30 15 Pb 2.9573 0.8048 6.1542 0
M  V30 16 Pd -4.3127 -0.8833 3.9309 0
M  V30 17 Pb -3.9069 -1.1477 4.8042 0
M  V30 18 Pb -4.7345 -0.1178 4.3986 0
M  V30 19 Pb -3.9232 -1.7084 3.5114 0
M  V30 20 Pb -4.6360 -0.5027 3.0377 0
M  V30 21 Pd 1.6087 -5.5462 1.8188 0
M  V30 22 Pb 1.4112 -5.9744 0.9366 0
M  V30 23 Pb 1.8683 -5.1437 2.6966 0
M  V30 24 Pb 0.6316 -5.4486 2.0217 0
M  V30 25 Pb 2.5622 -5.5292 1.5297 0
M  V30 26 Pd -4.3896 3.9456 0.4572 0
M  V30 27 Pb -4.8335 4.1700 1.3150 0
M  V30 28 Pb -3.9787 4.8550 0.4417 0
M  V30 29 Pb -3.9470 3.7840 -0.4257 0
M  V30 30 Pb -4.6982 2.9742 0.5551 0
M  V30 31 Pd 2.3239 5.7991 1.9831 0
M  V30 32 Pb 2.5901 5.7177 1.0223 0
M  V30 33 Pb 1.5278 6.3357 1.7065 0
M  V30 34 Pb 3.0626 5.1923 2.2796 0
M  V30 35 Pb 2.0119 5.7896 2.9327 0
M  V30 36 Pd 3.9822 -1.3434 -3.1970 0
M  V30 37 Pb 4.4516 -2.0648 -2.6909 0
M  V30 38 Pb 3.4711 -0.6086 -3.6465 0
M  V30 39 Pb 4.0807 -1.8883 -4.0360 0
M  V30 40 Pb 3.8559 -0.8498 -2.3342 0
M  V30 41 Pd -2.8489 0.2335 -4.5412 0
M  V30 42 Pb -3.3809 -0.6103 -4.5649 0
M  V30 43 Pb -2.9005 0.2518 -3.5430 0
M  V30 44 Pb -2.1157 0.9093 -4.5351 0
M  V30 45 Pb -2.6578 0.0999 -5.5099 0
M  V30 46 Ag 1.1207 -5.9880 -4.4682 0
M  V30 47 Fe 1.2359 -6.1637 -2.1020 0
M  V30 48 Ag 1.3504 -6.3072 0.2664 0
M  V30 49 Ag 3.2275 -5.4321 1.2065 0
M  V30 50 Fe 4.1803 -4.0997 -0.5073 0
M  V30 51 Ag 4.7410 -2.5999 -2.2559 0
M  V30 52 Ag -3.6523 -2.3685 3.2662 0
M  V30 53 Fe -1.8685 -3.8359 2.6946 0
M  V30 54 Ag -0.1055 -5.3247 2.1142 0
M  V30 55 Ag -5.0367 0.5039 4.6570 0
M  V30 56 Fe -5.3313 2.6339 3.7083 0
M  V30 57 Ag -5.1323 4.2216 1.9873 0
M  V30 58 Ag 3.4615 1.1483 5.7166 0
M  V30 59 Fe 3.6653 2.8979 4.1217 0
M  V30 60 Ag 3.5440 4.6971 2.5743 0
M  V30 61 Ag 0.4305 -3.7694 -7.0379 0
M  V30 62 Fe -0.9771 -1.8689 -6.9040 0
M  V30 63 Ag -2.3927 -0.1166 -6.1720 0
M  V30 64 Ag -0.8000 -5.0006 -5.5856 0
M  V30 65 Fe -2.4229 -3.3393 -5.0937 0
M  V30 66 Ag -3.5896 -1.3256 -4.6278 0
M  V30 67 Ag 1.6717 2.0999 6.7422 0
M  V30 68 Fe 1.6635 3.9920 5.3079 0
M  V30 69 Ag 1.7946 5.6779 3.6412 0
M  V30 70 Ag 0.7039 -0.2461 7.2931 0
M  V30 71 Fe -1.4622 -0.8189 6.5101 0
M  V30 72 Ag -3.5389 -1.2550 5.4473 0
M  V30 73 Ag 3.0471 -0.0355 -3.8860 0
M  V30 74 Fe 0.8429 0.7640 -4.2681 0
M  V30 75 Ag -1.4588 1.2652 -4.5722 0
M  V30 76 Ag -3.5746 5.4840 0.4653 0
M  V30 77 Fe -1.3785 6.2414 0.9485 0
M  V30 78 Ag 0.8909 6.6682 1.4947 0
M  V30 79 Ag 2.6267 -1.2264 6.3609 0
M  V30 80 Fe 2.3821 -3.0512 4.8620 0
M  V30 81 Ag 2.1179 -4.8567 3.3431 0
M  V30 82 Ba 1.6244 3.6413 -1.5951 0
M  V30 83 Ga 2.2046 4.6458 -0.6812 0
M  V30 84 Ba 2.7386 5.6184 0.2934 0
M  V30 85 Ba -4.8831 -0.2079 2.3667 0
M  V30 86 Ga -4.8635 1.0535 1.5482 0
M  V30 87 Ba -4.9271 2.2383 0.6243 0
M  V30 88 Ba 2.5964 -4.4367 -6.0094 0
M  V30 89 Ga 3.3868 -3.3925 -5.3169 0
M  V30 90 Ba 4.1795 -2.3480 -4.6274 0
M  V30 91 Ba -0.8932 3.1109 -2.0674 0
M  V30 92 Ga -2.2480 3.4364 -1.5814 0
M  V30 93 Ba -3.6025 3.7591 -1.0930 0
M  V30 94 Ba 1.8072 1.4503 -0.6028 0
M  V30 95 Ga 2.7753 0.4732 -1.1415 0
M  V30 96 Ba 3.7461 -0.5038 -1.6755 0
M  V30 97 Ba -0.7942 1.2093 -0.9422 0
M  V30 98 Ga -1.8457 0.6872 -1.8354 0
M  V30 99 Ba -2.8559 0.2036 -2.7957 0
M  V30 END ATOM
M  V30 BEGIN BOND
M  V30 1 1 1 2
M  V30 2 1 1 3
M  V30 3 1 1 4
M  V30 4 1 1 5
M  V30 5 1 6 7
M  V30 6 1 6 8
M  V30 7 1 6 9
M  V30 8 1 6 10
M  V30 9 1 11 12
M  V30 10 1 11 13
M  V30 11 1 11 14
M  V30 12 1 11 15
M  V30 13 1 16 17
M  V30 14 1 16 18
M  V30 15 1 16 19
M  V30 16 1 16 20
M  V30 17 1 21 22
M  V30 18 1 21 23
M  V30 19 1 21 24
M  V30 20 1 21 25
M  V30 21 1 26 27
M  V30 22 1 26 28
M  V30 23 1 26 29
M  V30 24 1 26 30
M  V30 25 1 31 32
M  V30 26 1 31 33
M  V30 27 1 31 34
M  V30 28 1 31 35
M  V30 29 1 36 37
M  V30 30 1 36 38
M  V30 31 1 36 39
M  V30 32 1 36 40
M  V30 33 1 41 42
M  V30 34 1 41 43
M  V30 35 1 41 44
M  V30 36 1 41 45
M  V30 37 1 46 47
M  V30 38 1 47 48
M  V30 39 1 49 50
M  V30 40 1 50 51
M  V30 41 1 52 53
M  V30 42 1 53 54
M  V30 43 1 55 56
M  V30 44 1 56 57
M  V30 45 1 58 59
M  V30 46 1 59 60
M  V30 47 1 61 62
M  V30 48 1 62 63
M  V30 49 1 64 65
M  V30 50 1 65 66
M  V30 51 1 67 68
M  V30 52 1 68 69
M  V30 53 1 70 71
M  V30 54 1 71 72
M  V30 55 1 73 74
M  V30 56 1 74 75
M  V30 57 1 76 77
M  V30 58 1 77 78
M  V30 59 1 79 80
M  V30 60 1 80 81
M  V30 61 1 82 83
M  V30 62 1 83 84
M  V30 63 1 85 86
M  V30 64 1 86 87
M  V30 65 1 88 89
M  V30 66 1 89 90
M  V30 67 1 91 92
M  V30 68 1 92 93
M  V30 69 1 94 95
M  V30 70 1 95 96
M  V30 71 1 97 98
M  V30 72 1 98 99
M  V30 73 1 2 82
M  V30 74 1 3 97
M  V30 75 1 4 91
M  V30 76 1 5 94
M  V30 77 1 7 46
M  V30 78 1 8 64
M  V30 79 1 9 88
M  V30 80 1 10 61
M  V30 81 1 12 67
M  V30 82 1 13 79
M  V30 83 1 14 70
M  V30 84 1 15 58
M  V30 85 1 17 72
M  V30 86 1 18 55
M  V30 87 1 19 52
M  V30 88 1 20 85
M  V30 89 1 22 48
M  V30 90 1 23 81
M  V30 91 1 24 54
M  V30 92 1 25 49
M  V30 93 1 27 57
M  V30 94 1 28 76
M  V30 95 1 29 93
M  V30 96 1 30 87
M  V30 97 1 32 84
M  V30 98 1 33 78
M  V30 99 1 34 60
M  V30 100 1 35 69
M  V30 101 1 37 51
M  V30 102 1 38 73
M  V30 103 1 39 90
M  V30 104 1 40 96
M  V30 105 1 42 66
M  V30 106 1 43 99
M  V30 107 1 44 75
M  V30 108 1 45 63
M  V30 END BOND
M  V30 END CTAB
M  END

$$$$
