
     RDKit          3D

  0  0  0  0  0  0  0  0  0  0999 V3000
M  V30 BEGIN CTAB
M  V30 COUNTS 99 108 0 0 0
M  V30 BEGIN ATOM
M  V30 1 Pd 1.0259 1.3151 3.1654 0
M  V30 2 Pb 0.6527 1.7452 3.9875 0
M  V30 3 Pb 1.3353 0.9739 2.2772 0
M  V30 4 Pb 1.6502 2.0805 3.0110 0
M  V30 5 Pb 0.3925 0.5496 3.3129 0
M  V30 6 Pd 5.0982 -6.6946 -1.4115 0
M  V30 7 Pb 4.2738 -6.9505 -1.9188 0
M  V30 8 Pb 5.3486 -6.0402 -2.1240 0
M  V30 9 Pb 4.7841 -7.1716 -0.5911 0
M  V30 10 Pb 5.8892 -6.3609 -0.9008 0
M  V30 11 Pd -5.6847 1.6249 -0.5195 0
M  V30 12 Pb -5.6218 2.6057 -0.3340 0
M  V30 13 Pb -5.7530 0.6444 -0.6947 0
M  V30 14 Pb -5.8432 1.7859 -1.4969 0
M  V30 15 Pb -5.5314 1.4473 0.4548 0
M  V30 16 Pd -2.6327 2.3040 -4.9638 0
M  V30 17 Pb -3.6178 2.1919 -4.8273 0
M  V30 18 Pb -2.7144 3.2807 -4.7710 0
M  V30 19 Pb -2.5289 1.3304 -5.1821 0
M  V30 20 Pb -1.6446 2.4603 -5.0236 0
M  V30 21 Pd -2.3156 -5.0225 -2.6881 0
M  V30 22 Pb -1.5039 -5.5496 -2.9480 0
M  V30 23 Pb -3.1303 -4.5148 -2.4131 0
M  V30 24 Pb -2.2561 -4.4530 -3.5089 0
M  V30 25 Pb -2.3531 -5.5140 -1.8203 0
M  V30 26 Pd 1.4230 6.8977 -1.3854 0
M  V30 27 Pb 0.6353 7.1255 -1.9525 0
M  V30 28 Pb 1.0319 7.3918 -0.6125 0
M  V30 29 Pb 2.1195 6.5516 -0.7610 0
M  V30 30 Pb 1.7092 6.2772 -2.1174 0
M  V30 31 Pd -3.2017 4.2983 3.3530 0
M  V30 32 Pb -2.5854 3.9992 4.0856 0
M  V30 33 Pb -2.7068 5.1630 3.2732 0
M  V30 34 Pb -3.6885 3.4252 3.3829 0
M  V30 35 Pb -3.7936 4.5858 2.5985 0
M  V30 36 Pd 0.8181 -4.2705 3.9091 0
M  V30 37 Pb 0.1011 -4.8378 3.5081 0
M  V30 38 Pb 1.5475 -3.6737 4.2400 0
M  V30 39 Pb 1.4431 -5.0425 3.7752 0
M  V30 40 Pb 0.1924 -3.4893 3.9509 0
M  V30 41 Pd 5.6586 -0.4025 0.5258 0
M  V30 42 Pb 5.8015 -0.6262 -0.4387 0
M  V30 43 Pb 4.7616 -0.0167 0.3119 0
M  V30 44 Pb 5.4521 -0.3486 1.4997 0
M  V30 45 Pb 6.4558 -0.9656 0.7270 0
M  V30 46 Ag 3.6462 -7.0924 -2.3069 0
M  V30 47 Fe 1.3709 -6.5469 -2.7267 0
M  V30 48 Ag -0.9019 -5.9686 -3.1147 0
M  V30 49 Ag -2.3600 -5.8134 -1.1348 0
M  V30 50 Fe -1.4474 -5.6294 1.0476 0
M  V30 51 Ag -0.4013 -5.2561 3.1441 0
M  V30 52 Ag -2.4464 0.6037 -5.3618 0
M  V30 53 Fe -2.3309 -1.6912 -4.7510 0
M  V30 54 Ag -2.2239 -3.9707 -4.0837 0
M  V30 55 Ag -2.6974 4.0154 -4.6275 0
M  V30 56 Fe -1.4516 5.7225 -3.5502 0
M  V30 57 Ag 0.0158 7.1628 -2.3679 0
M  V30 58 Ag 6.4374 -6.0039 -0.5376 0
M  V30 59 Fe 6.9480 -3.8258 0.2467 0
M  V30 60 Ag 6.9422 -1.5244 0.8136 0
M  V30 61 Ag 5.5188 -5.4287 -2.5222 0
M  V30 62 Fe 5.7637 -3.1100 -2.0727 0
M  V30 63 Ag 5.8864 -0.9407 -1.1146 0
M  V30 64 Ag -0.9212 2.6660 -5.0017 0
M  V30 65 Fe 0.5749 4.1622 -3.9168 0
M  V30 66 Ag 1.8022 5.7630 -2.6579 0
M  V30 67 Ag 4.5351 -7.3934 0.0812 0
M  V30 68 Fe 3.2227 -6.6286 1.9095 0
M  V30 69 Ag 1.8691 -5.6353 3.5923 0
M  V30 70 Ag 2.1146 2.6378 2.8223 0
M  V30 71 Fe 2.4636 4.4692 1.3539 0
M  V30 72 Ag 2.5381 6.2368 -0.2278 0
M  V30 73 Ag 2.0774 -3.1750 4.4160 0
M  V30 74 Fe 3.7120 -1.7336 3.4796 0
M  V30 75 Ag 5.2399 -0.4376 2.2102 0
M  V30 76 Ag 0.6918 7.6398 0.0049 0
M  V30 77 Fe -0.8176 6.8700 1.6656 0
M  V30 78 Ag -2.3297 5.7980 3.1469 0
M  V30 79 Ag -5.8053 -0.0880 -0.8391 0
M  V30 80 Fe -4.7781 -2.1174 -1.5162 0
M  V30 81 Ag -3.7410 -4.1413 -2.1945 0
M  V30 82 Ba 0.3194 2.0890 4.5653 0
M  V30 83 Ga -0.8914 2.9338 4.6249 0
M  V30 84 Ba -2.1090 3.7711 4.6224 0
M  V30 85 Ba -5.4189 1.3162 1.1867 0
M  V30 86 Ga -4.7420 2.0346 2.2849 0
M  V30 87 Ba -4.0583 2.7728 3.3656 0
M  V30 88 Ba -5.5730 3.3344 -0.1623 0
M  V30 89 Ga -4.9033 4.0769 0.9234 0
M  V30 90 Ba -4.2240 4.7951 2.0195 0
M  V30 91 Ba -5.9758 1.8663 -2.2340 0
M  V30 92 Ga -5.1628 2.0046 -3.4605 0
M  V30 93 Ba -4.3546 2.1439 -4.6902 0
M  V30 94 Ba -0.1148 0.0116 3.4626 0
M  V30 95 Ga -0.1630 -1.4478 3.6990 0
M  V30 96 Ba -0.2774 -2.9022 3.9437 0
M  V30 97 Ba 1.5619 0.8313 1.5753 0
M  V30 98 Ga 2.8216 0.4979 0.8812 0
M  V30 99 Ba 4.0544 0.1657 0.1397 0
M  V30 END ATOM
M  V30 BEGIN BOND
M  V30 1 1 1 2
M  V30 2 1 1 3
M  V30 3 1 1 4
M  V30 4 1 1 5
M  V30 5 1 6 7
M  V30 6 1 6 8
M  V30 7 1 6 9
M  V30 8 1 6 10
M  V30 9 1 11 12
M  V30 10 1 11 13
M  V30 11 1 11 14
M  V30 12 1 11 15
M  V30 13 1 16 17
M  V30 14 1 16 18
M  V30 15 1 16 19
M  V30 16 1 16 20
M  V30 17 1 21 22
M  V30 18 1 21 23
M  V30 19 1 21 24
M  V30 20 1 21 25
M  V30 21 1 26 27
M  V30 22 1 26 28
M  V30 23 1 26 29
M  V30 24 1 26 30
M  V30 25 1 31 32
M  V30 26 1 31 33
M  V30 27 1 31 34
M  V30 28 1 31 35
M  V30 29 1 36 37
M  V30 30 1 36 38
M  V30 31 1 36 39
M  V30 32 1 36 40
M  V30 33 1 41 42
M  V30 34 1 41 43
M  V30 35 1 41 44
M  V30 36 1 41 45
M  V30 37 1 46 47
M  V30 38 1 47 48
M  V30 39 1 49 50
M  V30 40 1 50 51
M  V30 41 1 52 53
M  V30 42 1 53 54
M  V30 43 1 55 56
M  V30 44 1 56 57
M  V30 45 1 58 59
M  V30 46 1 59 60
M  V30 47 1 61 62
M  V30 48 1 62 63
M  V30 49 1 64 65
M  V30 50 1 65 66
M  V30 51 1 67 68
M  V30 52 1 68 69
M  V30 53 1 70 71
M  V30 54 1 71 72
M  V30 55 1 73 74
M  V30 56 1 74 75
M  V30 57 1 76 77
M  V30 58 1 77 78
M  V30 59 1 79 80
M  V30 60 1 80 81
M  V30 61 1 82 83
M  V30 62 1 83 84
M  V30 63 1 85 86
M  V30 64 1 86 87
M  V30 65 1 88 89
M  V30 66 1 89 90
M  V30 67 1 91 92
M  V30 68 1 92 93
M  V30 69 1 94 95
M  V30 70 1 95 96
M  V30 71 1 97 98
M  V30 72 1 98 99
M  V30 73 1 2 82
M  V30 74 1 3 97
M  V30 75 1 4 70
M  V30 76 1 5 94
M  V30 77 1 7 46
M  V30 78 1 8 61
M  V30 79 1 9 67
M  V30 80 1 10 58
M  V30 81 1 12 88
M  V30 82 1 13 79
M  V30 83 1 14 91
M  V30 84 1 15 85
M  V30 85 1 17 93
M  V30 86 1 18 55
M  V30 87 1 19 52
M  V30 88 1 20 64
M  V30 89 1 22 48
M  V30 90 1 23 81
M  V30 91 1 24 54
M  V30 92 1 25 49
M  V30 93 1 27 57
M  V30 94 1 28 76
M  V30 95 1 29 72
M  V30 96 1 30 66
M  V30 97 1 32 84
M  V30 98 1 33 78
M  V30 99 1 34 87
M  V30 100 1 35 90
M  V30 101 1 37 51
M  V30 102 1 38 73
M  V30 103 1 39 69
M  V30 104 1 40 96
M  V30 105 1 42 63
M  V30 106 1 43 99
M  V30 107 1 44 75
M  V30 108 1 45 60
M  V30 END BOND
M  V30 END CTAB
M  END

$$$$
