
     RDKit          3D

  0  0  0  0  0  0  0  0  0  0999 V3000
M  V30 BEGIN CTAB
M  V30 COUNTS 99 108 0 0 0
M  V30 BEGIN ATOM
M  V30 1 Pd -2.2327 0.6063 -3.9985 0
M  V30 2 Pb -2.3044 -0.2981 -4.4132 0
M  V30 3 Pb -1.2508 0.4332 -3.9150 0
M  V30 4 Pb -3.2208 0.7169 -4.1290 0
M  V30 5 Pb -2.1694 1.4820 -3.5108 0
M  V30 6 Pd 7.6410 2.7009 2.6466 0
M  V30 7 Pb 7.0940 2.3450 3.4057 0
M  V30 8 Pb 7.7819 1.7877 2.2603 0
M  V30 9 Pb 7.3554 3.6323 2.8577 0
M  V30 10 Pb 8.1261 3.0554 1.8522 0
M  V30 11 Pd -0.8862 -4.9407 2.4357 0
M  V30 12 Pb -1.6621 -5.4361 2.8116 0
M  V30 13 Pb -0.0891 -4.4419 2.0962 0
M  V30 14 Pb -0.9123 -4.2973 3.1975 0
M  V30 15 Pb -0.9405 -5.5217 1.6049 0
M  V30 16 Pd -3.1162 -0.1579 2.4081 0
M  V30 17 Pb -2.5801 -0.6987 3.0608 0
M  V30 18 Pb -3.8736 -0.8173 2.4365 0
M  V30 19 Pb -2.3692 0.4867 2.2495 0
M  V30 20 Pb -3.6622 0.4210 1.8124 0
M  V30 21 Pd 2.3221 1.7906 3.2641 0
M  V30 22 Pb 3.1423 1.7156 3.8365 0
M  V30 23 Pb 2.4867 0.8815 2.8797 0
M  V30 24 Pb 1.5014 1.8763 2.7055 0
M  V30 25 Pb 2.0989 2.7049 3.6030 0
M  V30 26 Pd -6.4280 -1.2986 -1.4533 0
M  V30 27 Pb -6.3775 -1.7007 -0.5328 0
M  V30 28 Pb -6.7362 -2.1651 -1.8547 0
M  V30 29 Pb -6.4055 -0.8524 -2.3475 0
M  V30 30 Pb -6.1562 -0.4232 -1.0697 0
M  V30 31 Pd -4.4214 -6.1936 -1.9710 0
M  V30 32 Pb -3.9891 -5.7316 -2.7428 0
M  V30 33 Pb -5.3062 -5.8592 -2.2913 0
M  V30 34 Pb -3.5150 -6.4325 -1.5794 0
M  V30 35 Pb -4.8612 -6.6259 -1.1909 0
M  V30 36 Pd 1.6300 5.8458 0.3216 0
M  V30 37 Pb 1.3279 5.7469 1.2711 0
M  V30 38 Pb 1.9804 5.8810 -0.6156 0
M  V30 39 Pb 2.5060 6.1285 0.7139 0
M  V30 40 Pb 0.7563 5.5348 -0.0609 0
M  V30 41 Pd 5.6505 1.5439 -3.6849 0
M  V30 42 Pb 6.0996 0.8224 -3.1535 0
M  V30 43 Pb 4.8260 0.9897 -3.7874 0
M  V30 44 Pb 5.1626 2.3480 -4.0186 0
M  V30 45 Pb 6.4484 2.1091 -3.4976 0
M  V30 46 Ag -2.3559 -1.0019 -4.6595 0
M  V30 47 Fe -2.9973 -3.2101 -4.0773 0
M  V30 48 Ag -3.6933 -5.3440 -3.3101 0
M  V30 49 Ag 8.4055 3.2745 1.1972 0
M  V30 50 Fe 7.9234 3.0379 -1.1082 0
M  V30 51 Ag 7.0219 2.5011 -3.2300 0
M  V30 52 Ag 7.8179 1.1768 1.8230 0
M  V30 53 Fe 7.2045 0.5627 -0.3916 0
M  V30 54 Ag 6.4352 0.3909 -2.6359 0
M  V30 55 Ag -2.2776 -5.8205 2.9602 0
M  V30 56 Fe -3.9987 -6.6019 1.5561 0
M  V30 57 Ag -5.0660 -6.8740 -0.5245 0
M  V30 58 Ag 7.0540 4.3161 2.8726 0
M  V30 59 Fe 5.1394 5.4445 2.0383 0
M  V30 60 Ag 3.1387 6.2936 1.0829 0
M  V30 61 Ag -2.1485 2.1205 -3.1096 0
M  V30 62 Fe -1.0056 3.7057 -1.7521 0
M  V30 63 Ag 0.1221 5.3013 -0.3940 0
M  V30 64 Ag 2.2326 5.8339 -1.3214 0
M  V30 65 Fe 3.4811 4.5133 -2.8501 0
M  V30 66 Ag 4.7839 2.9856 -4.1179 0
M  V30 67 Ag -0.5342 0.2089 -3.9072 0
M  V30 68 Fe 1.8269 0.4616 -3.8628 0
M  V30 69 Ag 4.1985 0.5822 -3.8207 0
M  V30 70 Ag 0.5108 -4.0304 1.9144 0
M  V30 71 Fe 1.5953 -1.9357 2.1936 0
M  V30 72 Ag 2.5576 0.2043 2.5636 0
M  V30 73 Ba 6.6589 2.0937 3.9640 0
M  V30 74 Ga 5.2060 1.8688 4.1146 0
M  V30 75 Ba 3.7538 1.6426 4.2699 0
M  V30 76 Ba 1.8425 3.3874 3.7835 0
M  V30 77 Ga 1.5085 4.5488 2.9329 0
M  V30 78 Ba 1.2049 5.6606 2.0080 0
M  V30 79 Ba -1.8677 0.9926 2.0145 0
M  V30 80 Ga -0.4793 1.4454 2.2067 0
M  V30 81 Ba 0.8848 1.9935 2.3010 0
M  V30 82 Ba -4.4491 -1.3042 2.3896 0
M  V30 83 Ga -5.3883 -1.6489 1.2943 0
M  V30 84 Ba -6.3070 -1.9633 0.1728 0
M  V30 85 Ba -0.9932 -5.9598 0.9794 0
M  V30 86 Ga -1.9487 -6.2475 -0.1335 0
M  V30 87 Ba -2.8297 -6.6079 -1.2861 0
M  V30 88 Ba -4.0720 0.8620 1.3751 0
M  V30 89 Ga -5.0164 0.5829 0.2896 0
M  V30 90 Ba -5.9477 0.2318 -0.7862 0
M  V30 91 Ba -0.9546 -3.7621 3.7180 0
M  V30 92 Ga -1.5702 -2.4220 3.6664 0
M  V30 93 Ba -2.1961 -1.0885 3.5781 0
M  V30 94 Ba -3.9608 0.7406 -4.2672 0
M  V30 95 Ga -5.1608 0.1509 -3.6382 0
M  V30 96 Ba -6.3372 -0.4533 -2.9790 0
M  V30 97 Ba -6.9878 -2.8041 -2.1646 0
M  V30 98 Ga -6.4824 -4.1805 -2.3410 0
M  V30 99 Ba -5.9542 -5.5499 -2.5043 0
M  V30 END ATOM
M  V30 BEGIN BOND
M  V30 1 1 1 2
M  V30 2 1 1 3
M  V30 3 1 1 4
M  V30 4 1 1 5
M  V30 5 1 6 7
M  V30 6 1 6 8
M  V30 7 1 6 9
M  V30 8 1 6 10
M  V30 9 1 11 12
M  V30 10 1 11 13
M  V30 11 1 11 14
M  V30 12 1 11 15
M  V30 13 1 16 17
M  V30 14 1 16 18
M  V30 15 1 16 19
M  V30 16 1 16 20
M  V30 17 1 21 22
M  V30 18 1 21 23
M  V30 19 1 21 24
M  V30 20 1 21 25
M  V30 21 1 26 27
M  V30 22 1 26 28
M  V30 23 1 26 29
M  V30 24 1 26 30
M  V30 25 1 31 32
M  V30 26 1 31 33
M  V30 27 1 31 34
M  V30 28 1 31 35
M  V30 29 1 36 37
M  V30 30 1 36 38
M  V30 31 1 36 39
M  V30 32 1 36 40
M  V30 33 1 41 42
M  V30 34 1 41 43
M  V30 35 1 41 44
M  V30 36 1 41 45
M  V30 37 1 46 47
M  V30 38 1 47 48
M  V30 39 1 49 50
M  V30 40 1 50 51
M  V30 41 1 52 53
M  V30 42 1 53 54
M  V30 43 1 55 56
M  V30 44 1 56 57
M  V30 45 1 58 59
M  V30 46 1 59 60
M  V30 47 1 61 62
M  V30 48 1 62 63
M  V30 49 1 64 65
M  V30 50 1 65 66
M  V30 51 1 67 68
M  V30 52 1 68 69
M  V30 53 1 70 71
M  V30 54 1 71 72
M  V30 55 1 73 74
M  V30 56 1 74 75
M  V30 57 1 76 77
M  V30 58 1 77 78
M  V30 59 1 79 80
M  V30 60 1 80 81
M  V30 61 1 82 83
M  V30 62 1 83 84
M  V30 63 1 85 86
M  V30 64 1 86 87
M  V30 65 1 88 89
M  V30 66 1 89 90
M  V30 67 1 91 92
M  V30 68 1 92 93
M  V30 69 1 94 95
M  V30 70 1 95 96
M  V30 71 1 97 98
M  V30 72 1 98 99
M  V30 73 1 2 46
M  V30 74 1 3 67
M  V30 75 1 4 94
M  V30 76 1 5 61
M  V30 77 1 7 73
M  V30 78 1 8 52
M  V30 79 1 9 58
M  V30 80 1 10 49
M  V30 81 1 12 55
M  V30 82 1 13 70
M  V30 83 1 14 91
M  V30 84 1 15 85
M  V30 85 1 17 93
M  V30 86 1 18 82
M  V30 87 1 19 79
M  V30 88 1 20 88
M  V30 89 1 22 75
M  V30 90 1 23 72
M  V30 91 1 24 81
M  V30 92 1 25 76
M  V30 93 1 27 84
M  V30 94 1 28 97
M  V30 95 1 29 96
M  V30 96 1 30 90
M  V30 97 1 32 48
M  V30 98 1 33 99
M  V30 99 1 34 87
M  V30 100 1 35 57
M  V30 101 1 37 78
M  V30 102 1 38 64
M  V30 103 1 39 60
M  V30 104 1 40 63
M  V30 105 1 42 54
M  V30 106 1 43 69
M  V30 107 1 44 66
M  V30 108 1 45 51
M  V30 END BOND
M  V30 END CTAB
M  END

$$$$
