
     RDKit          3D

  0  0  0  0  0  0  0  0  0  0999 V3000
M  V30 BEGIN CTAB
M  V30 COUNTS 99 108 0 0 0
M  V30 BEGIN ATOM
M  V30 1 Pd -2.5919 2.3098 2.5809 0
M  V30 2 Pb -2.1851 3.1241 2.9933 0
M  V30 3 Pb -2.5054 2.7824 1.7037 0
M  V30 4 Pb -2.7320 1.8963 3.4829 0
M  V30 5 Pb -2.9709 1.4840 2.1568 0
M  V30 6 Pd -2.8053 -0.4256 -8.0174 0
M  V30 7 Pb -1.9201 -0.8449 -7.8127 0
M  V30 8 Pb -2.3708 0.4747 -8.0867 0
M  V30 9 Pb -3.3125 -1.2667 -7.8248 0
M  V30 10 Pb -3.6693 0.0336 -8.2059 0
M  V30 11 Pd 5.9232 1.1288 1.2725 0
M  V30 12 Pb 5.9613 1.4594 2.2148 0
M  V30 13 Pb 5.8717 0.7551 0.3445 0
M  V30 14 Pb 6.4822 0.3400 1.5235 0
M  V30 15 Pb 5.3201 1.8971 1.0459 0
M  V30 16 Pd 4.3261 -5.1180 4.1080 0
M  V30 17 Pb 5.2398 -4.8509 3.8130 0
M  V30 18 Pb 3.3664 -5.2262 4.3687 0
M  V30 19 Pb 4.1749 -5.5708 3.2311 0
M  V30 20 Pb 4.4440 -4.5814 4.9400 0
M  V30 21 Pd 2.4582 -3.9261 -3.3249 0
M  V30 22 Pb 2.1872 -3.4410 -4.1569 0
M  V30 23 Pb 3.2508 -3.3218 -3.2274 0
M  V30 24 Pb 2.7370 -4.4746 -2.5353 0
M  V30 25 Pb 1.6089 -4.4470 -3.3777 0
M  V30 26 Pd 0.0725 -0.1541 6.9378 0
M  V30 27 Pb -0.1092 -1.0924 6.6368 0
M  V30 28 Pb 0.3117 0.7765 7.2151 0
M  V30 29 Pb -0.8431 0.1402 6.6624 0
M  V30 30 Pb 0.9819 -0.4712 7.1980 0
M  V30 31 Pd 2.4302 3.7990 4.2804 0
M  V30 32 Pb 1.5367 4.2179 4.1141 0
M  V30 33 Pb 2.1580 3.6952 5.2378 0
M  V30 34 Pb 2.6946 3.8862 3.3162 0
M  V30 35 Pb 3.3294 3.4067 4.4717 0
M  V30 36 Pd -4.8252 -2.3390 -3.3750 0
M  V30 37 Pb -4.1794 -3.1018 -3.3669 0
M  V30 38 Pb -5.4584 -1.5625 -3.3507 0
M  V30 39 Pb -4.9443 -2.5119 -4.3578 0
M  V30 40 Pb -4.6753 -2.1773 -2.3979 0
M  V30 41 Pd -4.9676 4.7509 -4.4762 0
M  V30 42 Pb -4.2072 4.9678 -5.0869 0
M  V30 43 Pb -4.3756 4.8676 -3.6802 0
M  V30 44 Pb -5.6559 4.2760 -3.9344 0
M  V30 45 Pb -5.4985 4.5081 -5.2821 0
M  V30 46 Ag -1.2330 -1.1077 -7.6631 0
M  V30 47 Fe 0.3532 -2.1181 -6.2113 0
M  V30 48 Ag 1.9834 -3.1235 -4.8057 0
M  V30 49 Ag 0.9323 -4.7648 -3.3970 0
M  V30 50 Fe -1.3956 -4.3037 -3.3918 0
M  V30 51 Ag -3.6799 -3.6603 -3.3792 0
M  V30 52 Ag 4.0618 -5.8547 2.5476 0
M  V30 53 Fe 3.4960 -5.3980 0.2867 0
M  V30 54 Ag 2.9304 -4.9333 -1.9727 0
M  V30 55 Ag 2.6490 -5.1714 4.5832 0
M  V30 56 Fe 1.1220 -3.5947 5.4951 0
M  V30 57 Ag -0.1521 -1.8076 6.4081 0
M  V30 58 Ag -4.2761 0.4592 -8.2855 0
M  V30 59 Fe -5.2727 2.3487 -7.2667 0
M  V30 60 Ag -5.8029 4.1942 -5.8837 0
M  V30 61 Ag -2.1451 1.1912 -8.0519 0
M  V30 62 Fe -2.7136 3.2081 -6.9310 0
M  V30 63 Ag -3.6490 4.9287 -5.5856 0
M  V30 64 Ag 4.4553 -4.1202 5.5271 0
M  V30 65 Fe 3.1699 -2.4203 6.5659 0
M  V30 66 Ag 1.6476 -0.7775 7.3438 0
M  V30 67 Ag 6.8435 -0.2865 1.7169 0
M  V30 68 Fe 6.5412 -2.4543 2.6300 0
M  V30 69 Ag 5.8650 -4.5240 3.5694 0
M  V30 70 Ag -3.2421 0.8412 1.8741 0
M  V30 71 Fe -3.9008 -0.5764 0.0827 0
M  V30 72 Ag -4.5753 -2.0395 -1.6657 0
M  V30 73 Ag -5.8943 -0.9584 -3.2428 0
M  V30 74 Fe -6.1359 1.4018 -3.3702 0
M  V30 75 Ag -6.1092 3.7622 -3.6358 0
M  V30 76 Ag -2.4447 3.2200 1.0969 0
M  V30 77 Fe -3.1875 4.0419 -1.0039 0
M  V30 78 Ag -3.8936 4.8899 -3.1070 0
M  V30 79 Ag 5.8530 0.4172 -0.3271 0
M  V30 80 Fe 4.8503 -1.1921 -1.7610 0
M  V30 81 Ag 3.8006 -2.8160 -3.1438 0
M  V30 82 Ba -1.8651 3.7490 3.2556 0
M  V30 83 Ga -0.4967 4.1353 3.6495 0
M  V30 84 Ba 0.8638 4.5445 4.0473 0
M  V30 85 Ba 4.8517 2.4710 0.9119 0
M  V30 86 Ga 3.8781 3.2105 1.7454 0
M  V30 87 Ba 2.9096 3.9376 2.5956 0
M  V30 88 Ba 5.9698 1.6943 2.9262 0
M  V30 89 Ga 5.0004 2.4105 3.7750 0
M  V30 90 Ba 4.0128 3.1277 4.6015 0
M  V30 91 Ba -3.7606 -1.8410 -7.6391 0
M  V30 92 Ga -4.3694 -2.2755 -6.3616 0
M  V30 93 Ba -4.9817 -2.7101 -5.0858 0
M  V30 94 Ba -2.8868 1.6078 4.1601 0
M  V30 95 Ga -2.1785 0.9796 5.2933 0
M  V30 96 Ba -1.5367 0.3453 6.4622 0
M  V30 97 Ba 0.5314 1.4667 7.4103 0
M  V30 98 Ga 1.2247 2.5523 6.6903 0
M  V30 99 Ba 1.9186 3.6208 5.9456 0
M  V30 END ATOM
M  V30 BEGIN BOND
M  V30 1 1 1 2
M  V30 2 1 1 3
M  V30 3 1 1 4
M  V30 4 1 1 5
M  V30 5 1 6 7
M  V30 6 1 6 8
M  V30 7 1 6 9
M  V30 8 1 6 10
M  V30 9 1 11 12
M  V30 10 1 11 13
M  V30 11 1 11 14
M  V30 12 1 11 15
M  V30 13 1 16 17
M  V30 14 1 16 18
M  V30 15 1 16 19
M  V30 16 1 16 20
M  V30 17 1 21 22
M  V30 18 1 21 23
M  V30 19 1 21 24
M  V30 20 1 21 25
M  V30 21 1 26 27
M  V30 22 1 26 28
M  V30 23 1 26 29
M  V30 24 1 26 30
M  V30 25 1 31 32
M  V30 26 1 31 33
M  V30 27 1 31 34
M  V30 28 1 31 35
M  V30 29 1 36 37
M  V30 30 1 36 38
M  V30 31 1 36 39
M  V30 32 1 36 40
M  V30 33 1 41 42
M  V30 34 1 41 43
M  V30 35 1 41 44
M  V30 36 1 41 45
M  V30 37 1 46 47
M  V30 38 1 47 48
M  V30 39 1 49 50
M  V30 40 1 50 51
M  V30 41 1 52 53
M  V30 42 1 53 54
M  V30 43 1 55 56
M  V30 44 1 56 57
M  V30 45 1 58 59
M  V30 46 1 59 60
M  V30 47 1 61 62
M  V30 48 1 62 63
M  V30 49 1 64 65
M  V30 50 1 65 66
M  V30 51 1 67 68
M  V30 52 1 68 69
M  V30 53 1 70 71
M  V30 54 1 71 72
M  V30 55 1 73 74
M  V30 56 1 74 75
M  V30 57 1 76 77
M  V30 58 1 77 78
M  V30 59 1 79 80
M  V30 60 1 80 81
M  V30 61 1 82 83
M  V30 62 1 83 84
M  V30 63 1 85 86
M  V30 64 1 86 87
M  V30 65 1 88 89
M  V30 66 1 89 90
M  V30 67 1 91 92
M  V30 68 1 92 93
M  V30 69 1 94 95
M  V30 70 1 95 96
M  V30 71 1 97 98
M  V30 72 1 98 99
M  V30 73 1 2 82
M  V30 74 1 3 76
M  V30 75 1 4 94
M  V30 76 1 5 70
M  V30 77 1 7 46
M  V30 78 1 8 61
M  V30 79 1 9 91
M  V30 80 1 10 58
M  V30 81 1 12 88
M  V30 82 1 13 79
M  V30 83 1 14 67
M  V30 84 1 15 85
M  V30 85 1 17 69
M  V30 86 1 18 55
M  V30 87 1 19 52
M  V30 88 1 20 64
M  V30 89 1 22 48
M  V30 90 1 23 81
M  V30 91 1 24 54
M  V30 92 1 25 49
M  V30 93 1 27 57
M  V30 94 1 28 97
M  V30 95 1 29 96
M  V30 96 1 30 66
M  V30 97 1 32 84
M  V30 98 1 33 99
M  V30 99 1 34 87
M  V30 100 1 35 90
M  V30 101 1 37 51
M  V30 102 1 38 73
M  V30 103 1 39 93
M  V30 104 1 40 72
M  V30 105 1 42 63
M  V30 106 1 43 78
M  V30 107 1 44 75
M  V30 108 1 45 60
M  V30 END BOND
M  V30 END CTAB
M  END

$$$$
