
     RDKit          3D

  0  0  0  0  0  0  0  0  0  0999 V3000
M  V30 BEGIN CTAB
M  V30 COUNTS 99 108 0 0 0
M  V30 BEGIN ATOM
M  V30 1 Pd -1.2978 -4.2826 0.9958 0
M  V30 2 Pb -2.1146 -4.6637 1.4333 0
M  V30 3 Pb -1.8803 -3.6931 0.4339 0
M  V30 4 Pb -0.7029 -4.8691 1.5437 0
M  V30 5 Pb -0.4658 -3.8629 0.6287 0
M  V30 6 Pd -1.7582 1.7985 -8.3106 0
M  V30 7 Pb -1.4454 2.5354 -7.7106 0
M  V30 8 Pb -2.0404 1.0110 -8.8534 0
M  V30 9 Pb -0.8054 1.6362 -8.5548 0
M  V30 10 Pb -2.7019 1.8728 -7.9814 0
M  V30 11 Pd -1.9000 4.1368 3.9820 0
M  V30 12 Pb -2.6312 3.5451 3.6376 0
M  V30 13 Pb -1.8108 4.5992 3.1045 0
M  V30 14 Pb -1.1210 4.6797 4.2982 0
M  V30 15 Pb -1.9706 3.6338 4.8416 0
M  V30 16 Pd 3.3554 3.2063 3.7644 0
M  V30 17 Pb 2.8072 4.0158 3.9850 0
M  V30 18 Pb 3.8913 2.3765 3.6025 0
M  V30 19 Pb 3.6560 3.5943 2.8877 0
M  V30 20 Pb 3.1227 2.8126 4.6542 0
M  V30 21 Pd 2.5453 4.0233 -2.0661 0
M  V30 22 Pb 1.9905 4.0414 -2.9020 0
M  V30 23 Pb 1.8005 4.5150 -1.6218 0
M  V30 24 Pb 3.1099 4.1071 -1.2390 0
M  V30 25 Pb 3.2867 3.5079 -2.5022 0
M  V30 26 Pd 3.0678 -3.4274 6.5895 0
M  V30 27 Pb 3.7291 -3.0064 5.9679 0
M  V30 28 Pb 2.3081 -3.7947 7.1225 0
M  V30 29 Pb 3.0006 -4.2405 6.0179 0
M  V30 30 Pb 3.0156 -2.5469 7.0569 0
M  V30 31 Pd -3.8430 -2.6852 5.3137 0
M  V30 32 Pb -4.0347 -3.4492 4.6938 0
M  V30 33 Pb -3.3719 -3.2870 5.9568 0
M  V30 34 Pb -3.6002 -1.9067 5.8913 0
M  V30 35 Pb -4.2306 -2.0217 4.6733 0
M  V30 36 Pd 3.3871 -0.9791 -4.2714 0
M  V30 37 Pb 3.9536 -0.1893 -4.0301 0
M  V30 38 Pb 2.7784 -1.7349 -4.5147 0
M  V30 39 Pb 3.3782 -0.6648 -5.2186 0
M  V30 40 Pb 3.3264 -1.2776 -3.3205 0
M  V30 41 Pd -3.6236 -1.8870 -5.9966 0
M  V30 42 Pb -3.4927 -1.9333 -6.9856 0
M  V30 43 Pb -3.7365 -1.8243 -5.0044 0
M  V30 44 Pb -2.8982 -2.5596 -5.8624 0
M  V30 45 Pb -4.2282 -1.1031 -6.1437 0
M  V30 46 Ag -1.1612 3.0569 -7.2516 0
M  V30 47 Fe 0.1982 3.5580 -5.3662 0
M  V30 48 Ag 1.5404 4.1537 -3.4962 0
M  V30 49 Ag 4.2614 1.7238 3.5669 0
M  V30 50 Fe 4.3223 -0.4824 4.4474 0
M  V30 51 Ag 4.1472 -2.6133 5.4840 0
M  V30 52 Ag -2.0681 3.1812 5.4295 0
M  V30 53 Fe -2.7143 0.9687 5.9951 0
M  V30 54 Ag -3.3933 -1.2897 6.2627 0
M  V30 55 Ag -3.1448 3.0410 3.4204 0
M  V30 56 Fe -3.9018 0.8099 3.7327 0
M  V30 57 Ag -4.4444 -1.4475 4.2397 0
M  V30 58 Ag 3.0088 2.4703 5.3123 0
M  V30 59 Fe 2.9487 0.3774 6.4322 0
M  V30 60 Ag 2.9429 -1.8381 7.2858 0
M  V30 61 Ag -0.0825 1.4680 -8.6355 0
M  V30 62 Fe 1.7275 0.5463 -7.4125 0
M  V30 63 Ag 3.3008 -0.4053 -5.9154 0
M  V30 64 Ag -0.2097 -5.2637 1.9461 0
M  V30 65 Fe 1.3553 -5.1885 3.7270 0
M  V30 66 Ag 2.8226 -4.7917 5.5475 0
M  V30 67 Ag 0.1888 -3.5555 0.4229 0
M  V30 68 Fe 1.6980 -2.5394 -1.1046 0
M  V30 69 Ag 3.2173 -1.5225 -2.6214 0
M  V30 70 Ag 2.2823 -2.2728 -4.6813 0
M  V30 71 Fe 0.0224 -2.7553 -5.2265 0
M  V30 72 Ag -2.2816 -2.9707 -5.7575 0
M  V30 73 Ag -2.3267 -3.2585 0.0141 0
M  V30 74 Fe -3.0689 -2.5148 -2.1170 0
M  V30 75 Ag -3.7974 -1.7838 -4.2573 0
M  V30 76 Ag 1.6716 -4.0577 7.4144 0
M  V30 77 Fe -0.6742 -3.9758 7.0679 0
M  V30 78 Ag -2.9409 -3.6627 6.4400 0
M  V30 79 Ag -1.6777 4.9323 2.4507 0
M  V30 80 Fe -0.2702 4.9572 0.5434 0
M  V30 81 Ag 1.2202 4.8552 -1.2972 0
M  V30 82 Ba -2.7260 -4.9212 1.7875 0
M  V30 83 Ga -3.4530 -4.4835 2.9978 0
M  V30 84 Ba -4.1530 -4.0154 4.2127 0
M  V30 85 Ba 3.8658 3.1215 -2.7886 0
M  V30 86 Ga 4.0996 1.7678 -3.3340 0
M  V30 87 Ba 4.3656 0.4221 -3.8843 0
M  V30 88 Ba 3.9523 3.8819 2.2563 0
M  V30 89 Ga 3.6873 4.0169 0.8058 0
M  V30 90 Ba 3.5703 4.2329 -0.6543 0
M  V30 91 Ba -3.4032 1.8387 -7.7108 0
M  V30 92 Ga -4.0695 0.7296 -6.9957 0
M  V30 93 Ba -4.5913 -0.4632 -6.2959 0
M  V30 94 Ba -2.2644 0.3803 -9.1850 0
M  V30 95 Ga -2.8333 -0.8106 -8.5360 0
M  V30 96 Ba -3.3837 -1.9077 -7.7255 0
M  V30 97 Ba -0.5143 5.0873 4.4718 0
M  V30 98 Ga 0.9390 4.8531 4.3428 0
M  V30 99 Ba 2.3885 4.6006 4.2059 0
M  V30 END ATOM
M  V30 BEGIN BOND
M  V30 1 1 1 2
M  V30 2 1 1 3
M  V30 3 1 1 4
M  V30 4 1 1 5
M  V30 5 1 6 7
M  V30 6 1 6 8
M  V30 7 1 6 9
M  V30 8 1 6 10
M  V30 9 1 11 12
M  V30 10 1 11 13
M  V30 11 1 11 14
M  V30 12 1 11 15
M  V30 13 1 16 17
M  V30 14 1 16 18
M  V30 15 1 16 19
M  V30 16 1 16 20
M  V30 17 1 21 22
M  V30 18 1 21 23
M  V30 19 1 21 24
M  V30 20 1 21 25
M  V30 21 1 26 27
M  V30 22 1 26 28
M  V30 23 1 26 29
M  V30 24 1 26 30
M  V30 25 1 31 32
M  V30 26 1 31 33
M  V30 27 1 31 34
M  V30 28 1 31 35
M  V30 29 1 36 37
M  V30 30 1 36 38
M  V30 31 1 36 39
M  V30 32 1 36 40
M  V30 33 1 41 42
M  V30 34 1 41 43
M  V30 35 1 41 44
M  V30 36 1 41 45
M  V30 37 1 46 47
M  V30 38 1 47 48
M  V30 39 1 49 50
M  V30 40 1 50 51
M  V30 41 1 52 53
M  V30 42 1 53 54
M  V30 43 1 55 56
M  V30 44 1 56 57
M  V30 45 1 58 59
M  V30 46 1 59 60
M  V30 47 1 61 62
M  V30 48 1 62 63
M  V30 49 1 64 65
M  V30 50 1 65 66
M  V30 51 1 67 68
M  V30 52 1 68 69
M  V30 53 1 70 71
M  V30 54 1 71 72
M  V30 55 1 73 74
M  V30 56 1 74 75
M  V30 57 1 76 77
M  V30 58 1 77 78
M  V30 59 1 79 80
M  V30 60 1 80 81
M  V30 61 1 82 83
M  V30 62 1 83 84
M  V30 63 1 85 86
M  V30 64 1 86 87
M  V30 65 1 88 89
M  V30 66 1 89 90
M  V30 67 1 91 92
M  V30 68 1 92 93
M  V30 69 1 94 95
M  V30 70 1 95 96
M  V30 71 1 97 98
M  V30 72 1 98 99
M  V30 73 1 2 82
M  V30 74 1 3 73
M  V30 75 1 4 64
M  V30 76 1 5 67
M  V30 77 1 7 46
M  V30 78 1 8 94
M  V30 79 1 9 61
M  V30 80 1 10 91
M  V30 81 1 12 55
M  V30 82 1 13 79
M  V30 83 1 14 97
M  V30 84 1 15 52
M  V30 85 1 17 99
M  V30 86 1 18 49
M  V30 87 1 19 88
M  V30 88 1 20 58
M  V30 89 1 22 48
M  V30 90 1 23 81
M  V30 91 1 24 90
M  V30 92 1 25 85
M  V30 93 1 27 51
M  V30 94 1 28 76
M  V30 95 1 29 66
M  V30 96 1 30 60
M  V30 97 1 32 84
M  V30 98 1 33 78
M  V30 99 1 34 54
M  V30 100 1 35 57
M  V30 101 1 37 87
M  V30 102 1 38 70
M  V30 103 1 39 63
M  V30 104 1 40 69
M  V30 105 1 42 96
M  V30 106 1 43 75
M  V30 107 1 44 72
M  V30 108 1 45 93
M  V30 END BOND
M  V30 END CTAB
M  END

$$$$
