
     RDKit          3D

  0  0  0  0  0  0  0  0  0  0999 V3000
M  V30 BEGIN CTAB
M  V30 COUNTS 99 108 0 0 0
M  V30 BEGIN ATOM
M  V30 1 Pd 0.4429 -3.6177 1.8821 0
M  V30 2 Pb 1.3328 -4.0236 2.0829 0
M  V30 3 Pb 0.8338 -2.7552 2.2053 0
M  V30 4 Pb 0.0868 -4.4958 1.5528 0
M  V30 5 Pb -0.4398 -3.1879 1.6811 0
M  V30 6 Pd -1.1496 8.3078 4.2859 0
M  V30 7 Pb -1.1349 8.3649 3.2878 0
M  V30 8 Pb -1.1570 8.1338 5.2674 0
M  V30 9 Pb -2.1370 8.1661 4.2616 0
M  V30 10 Pb -0.1532 8.2245 4.3291 0
M  V30 11 Pd 2.2522 0.4001 -3.7992 0
M  V30 12 Pb 2.5886 -0.5026 -4.0766 0
M  V30 13 Pb 1.9623 1.3240 -3.5353 0
M  V30 14 Pb 1.7550 0.4831 -4.6649 0
M  V30 15 Pb 2.7548 0.3067 -2.9389 0
M  V30 16 Pd -1.2269 -2.7356 -5.9922 0
M  V30 17 Pb -0.8782 -1.8845 -6.3822 0
M  V30 18 Pb -1.5171 -3.5911 -5.5306 0
M  V30 19 Pb -1.7408 -2.2047 -5.3241 0
M  V30 20 Pb -0.6842 -3.2710 -6.6311 0
M  V30 21 Pd -2.0296 3.7946 -1.7424 0
M  V30 22 Pb -1.8523 4.7260 -1.4187 0
M  V30 23 Pb -1.0828 3.7423 -2.0705 0
M  V30 24 Pb -2.2329 2.8690 -2.0538 0
M  V30 25 Pb -2.9784 3.8432 -1.4272 0
M  V30 26 Pd 0.6582 -7.0661 -2.6424 0
M  V30 27 Pb -0.1873 -6.7074 -3.0700 0
M  V30 28 Pb 1.5411 -7.3357 -2.2660 0
M  V30 29 Pb 0.2612 -6.9721 -1.7249 0
M  V30 30 Pb 1.0429 -7.1826 -3.5523 0
M  V30 31 Pd 4.3735 -3.8157 -1.2134 0
M  V30 32 Pb 4.4246 -4.0209 -0.2388 0
M  V30 33 Pb 4.3881 -4.8042 -1.3650 0
M  V30 34 Pb 4.3439 -2.8319 -1.0306 0
M  V30 35 Pb 4.2445 -3.6256 -2.1874 0
M  V30 36 Pd -4.6799 2.1830 2.6809 0
M  V30 37 Pb -4.9739 2.5543 1.8002 0
M  V30 38 Pb -4.3378 1.8263 3.5517 0
M  V30 39 Pb -4.8665 3.0844 3.0757 0
M  V30 40 Pb -4.4634 1.2987 2.2647 0
M  V30 41 Pd 1.3481 2.6017 6.6220 0
M  V30 42 Pb 0.9536 3.2637 7.2544 0
M  V30 43 Pb 1.6894 1.9898 5.9095 0
M  V30 44 Pb 0.5727 1.9926 6.7754 0
M  V30 45 Pb 1.9858 3.3223 6.3455 0
M  V30 46 Ag -1.1412 8.3347 2.5385 0
M  V30 47 Fe -1.4201 6.9227 0.6479 0
M  V30 48 Ag -1.7164 5.4226 -1.1709 0
M  V30 49 Ag -2.1023 -1.8024 -4.8100 0
M  V30 50 Fe -2.2571 0.1995 -3.5478 0
M  V30 51 Ag -2.4483 2.1846 -2.2642 0
M  V30 52 Ag 0.5571 8.0013 4.4290 0
M  V30 53 Fe 1.6768 6.0640 5.2310 0
M  V30 54 Ag 2.3224 3.9472 6.0986 0
M  V30 55 Ag -1.1072 7.8800 5.9670 0
M  V30 56 Fe -0.2994 5.9383 7.0567 0
M  V30 57 Ag 0.6404 3.8368 7.6147 0
M  V30 58 Ag -0.2464 -3.7689 -6.9598 0
M  V30 59 Fe 0.7717 -5.6721 -6.0182 0
M  V30 60 Ag 1.2564 -7.1651 -4.2620 0
M  V30 61 Ag -2.8402 7.9106 4.2532 0
M  V30 62 Fe -4.0359 5.9064 3.8123 0
M  V30 63 Ag -4.9861 3.7874 3.3134 0
M  V30 64 Ag -1.1054 -2.8769 1.5206 0
M  V30 65 Fe -2.6921 -1.1211 1.7427 0
M  V30 66 Ag -4.2780 0.6352 1.9654 0
M  V30 67 Ag -4.0299 1.5433 4.1759 0
M  V30 68 Fe -2.1134 1.4855 5.5775 0
M  V30 69 Ag -0.0798 1.6269 6.7954 0
M  V30 70 Ag 1.2014 -2.1481 2.4505 0
M  V30 71 Fe 1.5263 -0.3038 3.9116 0
M  V30 72 Ag 1.9074 1.5574 5.3374 0
M  V30 73 Ba 2.0277 -4.2626 2.2263 0
M  V30 74 Ga 3.2438 -4.2647 1.3972 0
M  V30 75 Ba 4.3940 -4.2232 0.4799 0
M  V30 76 Ba -3.6980 3.8419 -1.2122 0
M  V30 77 Ga -4.4395 3.3582 -0.0314 0
M  V30 78 Ba -5.1761 2.8731 1.1520 0
M  V30 79 Ba -1.7537 -4.2227 -5.1711 0
M  V30 80 Ga -1.2326 -5.3105 -4.2921 0
M  V30 81 Ba -0.8157 -6.4413 -3.4119 0
M  V30 82 Ba 3.1383 0.2229 -2.2992 0
M  V30 83 Ga 3.7274 -0.9321 -1.5933 0
M  V30 84 Ba 4.3128 -2.0937 -0.8954 0
M  V30 85 Ba 2.8695 -1.1675 -4.2899 0
M  V30 86 Ga 3.4892 -2.3199 -3.6035 0
M  V30 87 Ba 4.1073 -3.4682 -2.9088 0
M  V30 88 Ba 1.3831 0.5308 -5.3164 0
M  V30 89 Ga 0.3958 -0.3313 -5.9943 0
M  V30 90 Ba -0.5879 -1.2361 -6.6196 0
M  V30 91 Ba -0.1868 -5.1577 1.3199 0
M  V30 92 Ga -0.0959 -6.0190 0.1201 0
M  V30 93 Ba -0.0556 -6.9343 -1.0417 0
M  V30 94 Ba 2.2402 -7.4756 -2.0428 0
M  V30 95 Ga 3.3356 -6.5451 -1.7191 0
M  V30 96 Ba 4.3807 -5.5532 -1.4110 0
M  V30 97 Ba 1.7965 2.0353 -3.3509 0
M  V30 98 Ga 0.6743 2.8433 -2.8260 0
M  V30 99 Ba -0.3685 3.7560 -2.3090 0
M  V30 END ATOM
M  V30 BEGIN BOND
M  V30 1 1 1 2
M  V30 2 1 1 3
M  V30 3 1 1 4
M  V30 4 1 1 5
M  V30 5 1 6 7
M  V30 6 1 6 8
M  V30 7 1 6 9
M  V30 8 1 6 10
M  V30 9 1 11 12
M  V30 10 1 11 13
M  V30 11 1 11 14
M  V30 12 1 11 15
M  V30 13 1 16 17
M  V30 14 1 16 18
M  V30 15 1 16 19
M  V30 16 1 16 20
M  V30 17 1 21 22
M  V30 18 1 21 23
M  V30 19 1 21 24
M  V30 20 1 21 25
M  V30 21 1 26 27
M  V30 22 1 26 28
M  V30 23 1 26 29
M  V30 24 1 26 30
M  V30 25 1 31 32
M  V30 26 1 31 33
M  V30 27 1 31 34
M  V30 28 1 31 35
M  V30 29 1 36 37
M  V30 30 1 36 38
M  V30 31 1 36 39
M  V30 32 1 36 40
M  V30 33 1 41 42
M  V30 34 1 41 43
M  V30 35 1 41 44
M  V30 36 1 41 45
M  V30 37 1 46 47
M  V30 38 1 47 48
M  V30 39 1 49 50
M  V30 40 1 50 51
M  V30 41 1 52 53
M  V30 42 1 53 54
M  V30 43 1 55 56
M  V30 44 1 56 57
M  V30 45 1 58 59
M  V30 46 1 59 60
M  V30 47 1 61 62
M  V30 48 1 62 63
M  V30 49 1 64 65
M  V30 50 1 65 66
M  V30 51 1 67 68
M  V30 52 1 68 69
M  V30 53 1 70 71
M  V30 54 1 71 72
M  V30 55 1 73 74
M  V30 56 1 74 75
M  V30 57 1 76 77
M  V30 58 1 77 78
M  V30 59 1 79 80
M  V30 60 1 80 81
M  V30 61 1 82 83
M  V30 62 1 83 84
M  V30 63 1 85 86
M  V30 64 1 86 87
M  V30 65 1 88 89
M  V30 66 1 89 90
M  V30 67 1 91 92
M  V30 68 1 92 93
M  V30 69 1 94 95
M  V30 70 1 95 96
M  V30 71 1 97 98
M  V30 72 1 98 99
M  V30 73 1 2 73
M  V30 74 1 3 70
M  V30 75 1 4 91
M  V30 76 1 5 64
M  V30 77 1 7 46
M  V30 78 1 8 55
M  V30 79 1 9 61
M  V30 80 1 10 52
M  V30 81 1 12 85
M  V30 82 1 13 97
M  V30 83 1 14 88
M  V30 84 1 15 82
M  V30 85 1 17 90
M  V30 86 1 18 79
M  V30 87 1 19 49
M  V30 88 1 20 58
M  V30 89 1 22 48
M  V30 90 1 23 99
M  V30 91 1 24 51
M  V30 92 1 25 76
M  V30 93 1 27 81
M  V30 94 1 28 94
M  V30 95 1 29 93
M  V30 96 1 30 60
M  V30 97 1 32 75
M  V30 98 1 33 96
M  V30 99 1 34 84
M  V30 100 1 35 87
M  V30 101 1 37 78
M  V30 102 1 38 67
M  V30 103 1 39 63
M  V30 104 1 40 66
M  V30 105 1 42 57
M  V30 106 1 43 72
M  V30 107 1 44 69
M  V30 108 1 45 54
M  V30 END BOND
M  V30 END CTAB
M  END

$$$$
