
     RDKit          3D

  0  0  0  0  0  0  0  0  0  0999 V3000
M  V30 BEGIN CTAB
M  V30 COUNTS 99 108 0 0 0
M  V30 BEGIN ATOM
M  V30 1 Pd -2.6881 -0.1747 -1.2981 0
M  V30 2 Pb -2.3852 0.3727 -2.0790 0
M  V30 3 Pb -2.3306 0.5188 -0.6728 0
M  V30 4 Pb -2.9794 -0.9021 -1.9184 0
M  V30 5 Pb -2.9781 -0.7408 -0.5261 0
M  V30 6 Pd -2.3348 6.7703 5.7619 0
M  V30 7 Pb -1.5460 6.1620 5.8642 0
M  V30 8 Pb -2.0063 7.0732 4.8591 0
M  V30 9 Pb -2.8062 6.2533 6.4689 0
M  V30 10 Pb -3.1368 7.3525 5.6480 0
M  V30 11 Pd 5.7352 -0.5080 -1.7880 0
M  V30 12 Pb 5.8897 -0.8451 -2.7210 0
M  V30 13 Pb 5.5561 -0.1513 -0.8723 0
M  V30 14 Pb 5.9902 -1.3842 -1.3729 0
M  V30 15 Pb 5.4884 0.3780 -2.1761 0
M  V30 16 Pd 3.5628 -5.5062 -0.8667 0
M  V30 17 Pb 4.3827 -5.0159 -0.5694 0
M  V30 18 Pb 2.7358 -5.9785 -1.2262 0
M  V30 19 Pb 3.0286 -5.1411 -0.1014 0
M  V30 20 Pb 4.0940 -5.9035 -1.6073 0
M  V30 21 Pd 1.0557 -0.1376 4.4131 0
M  V30 22 Pb 1.0323 0.7690 4.8390 0
M  V30 23 Pb 1.8822 0.1315 3.9198 0
M  V30 24 Pb 1.0831 -1.0403 3.9797 0
M  V30 25 Pb 0.2461 -0.4221 4.9294 0
M  V30 26 Pd 0.0212 -5.9431 -5.4221 0
M  V30 27 Pb 0.1468 -6.3636 -4.5080 0
M  V30 28 Pb 0.0235 -5.3895 -6.2506 0
M  V30 29 Pb -0.8098 -5.4783 -5.1163 0
M  V30 30 Pb 0.8620 -6.3780 -5.7263 0
M  V30 31 Pd 2.9893 0.5338 -6.0023 0
M  V30 32 Pb 2.1114 0.9981 -5.8987 0
M  V30 33 Pb 2.5543 -0.1311 -6.6096 0
M  V30 34 Pb 3.4099 1.1904 -5.3806 0
M  V30 35 Pb 3.8401 0.0044 -5.9847 0
M  V30 36 Pd -4.3873 0.3017 4.0078 0
M  V30 37 Pb -3.7645 -0.1542 4.6432 0
M  V30 38 Pb -4.9781 0.7658 3.3424 0
M  V30 39 Pb -4.5461 0.9905 4.7181 0
M  V30 40 Pb -4.2181 -0.4116 3.3283 0
M  V30 41 Pd -3.9698 4.7562 1.1314 0
M  V30 42 Pb -3.3016 5.4830 1.3644 0
M  V30 43 Pb -3.2255 4.0923 1.0737 0
M  V30 44 Pb -4.6417 4.0195 1.0531 0
M  V30 45 Pb -4.7060 5.4229 1.2236 0
M  V30 46 Ag -0.9690 5.6889 5.9520 0
M  V30 47 Fe 0.0266 3.5695 5.5437 0
M  V30 48 Ag 1.0377 1.4554 5.1461 0
M  V30 49 Ag -2.1373 0.7645 -2.6692 0
M  V30 50 Fe -0.4002 1.1042 -4.2521 0
M  V30 51 Ag 1.4399 1.2891 -5.7413 0
M  V30 52 Ag 2.6121 -4.9058 0.4791 0
M  V30 53 Fe 1.8836 -3.2773 2.0502 0
M  V30 54 Ag 1.0894 -1.7219 3.6628 0
M  V30 55 Ag -3.7544 7.6873 5.4083 0
M  V30 56 Fe -4.9439 7.2242 3.4303 0
M  V30 57 Ag -5.1599 5.9627 1.4546 0
M  V30 58 Ag 4.3656 -6.2085 -2.2251 0
M  V30 59 Fe 3.3503 -6.6590 -4.3007 0
M  V30 60 Ag 1.5468 -6.6446 -5.8133 0
M  V30 61 Ag -3.2113 5.7341 6.8181 0
M  V30 62 Fe -3.9978 3.5770 6.2162 0
M  V30 63 Ag -4.6077 1.4786 5.2872 0
M  V30 64 Ag -3.1530 -1.4739 -2.3705 0
M  V30 65 Fe -2.3392 -3.3023 -3.6487 0
M  V30 66 Ag -1.4203 -5.1031 -4.8944 0
M  V30 67 Ag 0.1224 -4.8857 -6.7925 0
M  V30 68 Fe 1.1209 -2.7519 -7.0737 0
M  V30 69 Ag 2.1979 -0.6379 -7.0320 0
M  V30 70 Ag 5.4075 0.1185 -0.1897 0
M  V30 71 Fe 3.9598 0.2267 1.6887 0
M  V30 72 Ag 2.5113 0.3342 3.5665 0
M  V30 73 Ba -0.3475 -0.6600 5.3240 0
M  V30 74 Ga -1.8162 -0.5650 5.2160 0
M  V30 75 Ba -3.2864 -0.4782 5.1212 0
M  V30 76 Ba 2.1179 -6.3560 -1.4811 0
M  V30 77 Ga 1.2206 -6.4633 -2.6726 0
M  V30 78 Ba 0.2657 -6.6491 -3.8086 0
M  V30 79 Ba 5.2983 1.0348 -2.4798 0
M  V30 80 Ga 4.5220 1.3859 -3.6793 0
M  V30 81 Ba 3.7352 1.6539 -4.8933 0
M  V30 82 Ba -1.8340 7.2164 4.1329 0
M  V30 83 Ga -2.3169 6.6243 2.8506 0
M  V30 84 Ba -2.8055 6.0264 1.5730 0
M  V30 85 Ba 5.9862 -1.0519 -3.4399 0
M  V30 86 Ga 5.2478 -0.7473 -4.6863 0
M  V30 87 Ba 4.4651 -0.4055 -5.8953 0
M  V30 88 Ba 6.1875 -2.0130 -1.0093 0
M  V30 89 Ga 5.5891 -3.3301 -0.7096 0
M  V30 90 Ba 5.0174 -4.6553 -0.3941 0
M  V30 91 Ba -3.1929 -1.1925 0.0331 0
M  V30 92 Ga -3.6414 -1.0509 1.4309 0
M  V30 93 Ba -4.0944 -0.9591 2.8315 0
M  V30 94 Ba -5.3977 1.0807 2.8012 0
M  V30 95 Ga -5.2843 2.2707 1.9313 0
M  V30 96 Ba -5.1503 3.4677 1.0740 0
M  V30 97 Ba -2.0193 1.0183 -0.2081 0
M  V30 98 Ga -2.3682 2.3113 0.4082 0
M  V30 99 Ba -2.6575 3.6045 1.0545 0
M  V30 END ATOM
M  V30 BEGIN BOND
M  V30 1 1 1 2
M  V30 2 1 1 3
M  V30 3 1 1 4
M  V30 4 1 1 5
M  V30 5 1 6 7
M  V30 6 1 6 8
M  V30 7 1 6 9
M  V30 8 1 6 10
M  V30 9 1 11 12
M  V30 10 1 11 13
M  V30 11 1 11 14
M  V30 12 1 11 15
M  V30 13 1 16 17
M  V30 14 1 16 18
M  V30 15 1 16 19
M  V30 16 1 16 20
M  V30 17 1 21 22
M  V30 18 1 21 23
M  V30 19 1 21 24
M  V30 20 1 21 25
M  V30 21 1 26 27
M  V30 22 1 26 28
M  V30 23 1 26 29
M  V30 24 1 26 30
M  V30 25 1 31 32
M  V30 26 1 31 33
M  V30 27 1 31 34
M  V30 28 1 31 35
M  V30 29 1 36 37
M  V30 30 1 36 38
M  V30 31 1 36 39
M  V30 32 1 36 40
M  V30 33 1 41 42
M  V30 34 1 41 43
M  V30 35 1 41 44
M  V30 36 1 41 45
M  V30 37 1 46 47
M  V30 38 1 47 48
M  V30 39 1 49 50
M  V30 40 1 50 51
M  V30 41 1 52 53
M  V30 42 1 53 54
M  V30 43 1 55 56
M  V30 44 1 56 57
M  V30 45 1 58 59
M  V30 46 1 59 60
M  V30 47 1 61 62
M  V30 48 1 62 63
M  V30 49 1 64 65
M  V30 50 1 65 66
M  V30 51 1 67 68
M  V30 52 1 68 69
M  V30 53 1 70 71
M  V30 54 1 71 72
M  V30 55 1 73 74
M  V30 56 1 74 75
M  V30 57 1 76 77
M  V30 58 1 77 78
M  V30 59 1 79 80
M  V30 60 1 80 81
M  V30 61 1 82 83
M  V30 62 1 83 84
M  V30 63 1 85 86
M  V30 64 1 86 87
M  V30 65 1 88 89
M  V30 66 1 89 90
M  V30 67 1 91 92
M  V30 68 1 92 93
M  V30 69 1 94 95
M  V30 70 1 95 96
M  V30 71 1 97 98
M  V30 72 1 98 99
M  V30 73 1 2 49
M  V30 74 1 3 97
M  V30 75 1 4 64
M  V30 76 1 5 91
M  V30 77 1 7 46
M  V30 78 1 8 82
M  V30 79 1 9 61
M  V30 80 1 10 55
M  V30 81 1 12 85
M  V30 82 1 13 70
M  V30 83 1 14 88
M  V30 84 1 15 79
M  V30 85 1 17 90
M  V30 86 1 18 76
M  V30 87 1 19 52
M  V30 88 1 20 58
M  V30 89 1 22 48
M  V30 90 1 23 72
M  V30 91 1 24 54
M  V30 92 1 25 73
M  V30 93 1 27 78
M  V30 94 1 28 67
M  V30 95 1 29 66
M  V30 96 1 30 60
M  V30 97 1 32 51
M  V30 98 1 33 69
M  V30 99 1 34 81
M  V30 100 1 35 87
M  V30 101 1 37 75
M  V30 102 1 38 94
M  V30 103 1 39 63
M  V30 104 1 40 93
M  V30 105 1 42 84
M  V30 106 1 43 99
M  V30 107 1 44 96
M  V30 108 1 45 57
M  V30 END BOND
M  V30 END CTAB
M  END

$$$$
