
     RDKit          3D

  0  0  0  0  0  0  0  0  0  0999 V3000
M  V30 BEGIN CTAB
M  V30 COUNTS 99 108 0 0 0
M  V30 BEGIN ATOM
M  V30 1 Pd -3.5114 -3.5772 2.9672 0
M  V30 2 Pb -2.7438 -3.7888 3.5709 0
M  V30 3 Pb -3.7666 -2.7889 3.5295 0
M  V30 4 Pb -3.2210 -4.3261 2.3733 0
M  V30 5 Pb -4.2545 -3.3586 2.3391 0
M  V30 6 Pd -2.2387 7.0021 1.7356 0
M  V30 7 Pb -1.5742 6.2650 1.6117 0
M  V30 8 Pb -2.3973 6.7182 2.6935 0
M  V30 9 Pb -2.3406 7.0807 0.7487 0
M  V30 10 Pb -2.9144 7.7265 1.8371 0
M  V30 11 Pd 6.1195 0.5809 -0.7551 0
M  V30 12 Pb 5.8053 1.0026 0.0860 0
M  V30 13 Pb 5.9246 1.4296 -1.2440 0
M  V30 14 Pb 6.4606 0.1945 -1.6122 0
M  V30 15 Pb 6.2521 -0.3020 -0.2602 0
M  V30 16 Pd 4.0733 -2.3829 -4.7457 0
M  V30 17 Pb 4.9400 -1.8970 -4.6524 0
M  V30 18 Pb 4.5081 -3.1774 -4.3289 0
M  V30 19 Pb 3.6519 -1.5815 -5.1740 0
M  V30 20 Pb 3.2109 -2.8912 -4.7897 0
M  V30 21 Pd 1.6209 2.2030 -3.0672 0
M  V30 22 Pb 1.3823 2.5574 -2.1619 0
M  V30 23 Pb 2.5378 2.5932 -2.9700 0
M  V30 24 Pb 1.8701 1.8215 -3.9580 0
M  V30 25 Pb 0.6977 1.8337 -3.1836 0
M  V30 26 Pd 2.2212 -6.0581 -1.4895 0
M  V30 27 Pb 3.1306 -5.9278 -1.8759 0
M  V30 28 Pb 2.6468 -6.3879 -0.6471 0
M  V30 29 Pb 1.3092 -6.2086 -1.1071 0
M  V30 30 Pb 1.8222 -5.6817 -2.3287 0
M  V30 31 Pd 3.9884 -3.5987 3.0328 0
M  V30 32 Pb 3.2145 -3.8726 3.6022 0
M  V30 33 Pb 4.0172 -4.5195 2.6395 0
M  V30 34 Pb 4.7381 -3.2752 2.4203 0
M  V30 35 Pb 3.9451 -2.6989 3.4481 0
M  V30 36 Pd -5.9694 2.0088 -1.3380 0
M  V30 37 Pb -5.2196 1.6817 -1.9136 0
M  V30 38 Pb -6.6999 2.2940 -0.7104 0
M  V30 39 Pb -5.6779 2.9416 -1.5593 0
M  V30 40 Pb -6.2034 1.0673 -1.1080 0
M  V30 41 Pd -6.2104 3.8324 3.6952 0
M  V30 42 Pb -5.4132 4.3115 4.1075 0
M  V30 43 Pb -5.8232 2.9408 3.9436 0
M  V30 44 Pb -6.9274 3.4181 3.1337 0
M  V30 45 Pb -6.6443 4.7142 3.5393 0
M  V30 46 Ag -1.0825 5.7091 1.5028 0
M  V30 47 Fe 0.0662 4.2641 0.0074 0
M  V30 48 Ag 1.2239 2.8106 -1.4728 0
M  V30 49 Ag -2.1404 -3.9595 3.9808 0
M  V30 50 Fe 0.2309 -4.0300 4.0679 0
M  V30 51 Ag 2.6039 -4.0377 4.0035 0
M  V30 52 Ag 0.0072 1.5614 -3.2995 0
M  V30 53 Fe -2.3166 1.4989 -2.8090 0
M  V30 54 Ag -4.6409 1.4329 -2.3213 0
M  V30 55 Ag -3.5329 8.1187 1.9399 0
M  V30 56 Fe -5.5908 7.2602 2.6811 0
M  V30 57 Ag -6.8485 5.4162 3.4190 0
M  V30 58 Ag 5.5503 1.2026 0.7497 0
M  V30 59 Fe 4.6562 -0.0391 2.5365 0
M  V30 60 Ag 3.9537 -1.9886 3.6502 0
M  V30 61 Ag -2.5963 6.9966 0.0528 0
M  V30 62 Fe -3.9770 5.3913 -1.0212 0
M  V30 63 Ag -5.3649 3.6022 -1.7375 0
M  V30 64 Ag -2.9649 -4.8646 1.9198 0
M  V30 65 Fe -1.1865 -5.6235 0.5413 0
M  V30 66 Ag 0.6254 -6.3281 -0.8223 0
M  V30 67 Ag -4.7899 -3.1629 1.8562 0
M  V30 68 Fe -5.6388 -1.4526 0.4501 0
M  V30 69 Ag -6.3460 0.3646 -0.8992 0
M  V30 70 Ag -3.9475 -2.1800 3.9310 0
M  V30 71 Fe -4.7561 0.0544 4.0179 0
M  V30 72 Ag -5.5520 2.2874 4.2025 0
M  V30 73 Ba 3.3501 -0.9784 -5.5058 0
M  V30 74 Ga 2.7005 0.2696 -5.0578 0
M  V30 75 Ba 2.0494 1.5211 -4.6220 0
M  V30 76 Ba 4.8325 -3.7701 -4.0106 0
M  V30 77 Ga 4.3451 -4.8096 -3.0924 0
M  V30 78 Ba 3.8067 -5.8244 -2.1751 0
M  V30 79 Ba 6.3797 -0.9732 0.0956 0
M  V30 80 Ga 5.7742 -1.9652 1.0425 0
M  V30 81 Ba 5.3213 -3.0535 1.9688 0
M  V30 82 Ba -2.6005 6.4464 3.3782 0
M  V30 83 Ga -3.7078 5.5667 3.8696 0
M  V30 84 Ba -4.8052 4.6892 4.3861 0
M  V30 85 Ba 2.5771 -3.2963 -4.7908 0
M  V30 86 Ga 2.0440 -4.3380 -3.8872 0
M  V30 87 Ba 1.5470 -5.3757 -2.9587 0
M  V30 88 Ba 6.7191 -0.0451 -2.2746 0
M  V30 89 Ga 6.1663 -0.8038 -3.4110 0
M  V30 90 Ba 5.6008 -1.5649 -4.5395 0
M  V30 91 Ba -7.2556 2.4120 -0.2130 0
M  V30 92 Ga -7.3551 2.7974 1.2125 0
M  V30 93 Ba -7.4424 3.1873 2.6376 0
M  V30 94 Ba 2.9982 -6.6108 -0.0233 0
M  V30 95 Ga 3.5058 -5.9144 1.1753 0
M  V30 96 Ba 4.0163 -5.2236 2.3759 0
M  V30 97 Ba 5.7412 2.0502 -1.6205 0
M  V30 98 Ga 4.4880 2.4870 -2.2639 0
M  V30 99 Ba 3.2212 2.8968 -2.8983 0
M  V30 END ATOM
M  V30 BEGIN BOND
M  V30 1 1 1 2
M  V30 2 1 1 3
M  V30 3 1 1 4
M  V30 4 1 1 5
M  V30 5 1 6 7
M  V30 6 1 6 8
M  V30 7 1 6 9
M  V30 8 1 6 10
M  V30 9 1 11 12
M  V30 10 1 11 13
M  V30 11 1 11 14
M  V30 12 1 11 15
M  V30 13 1 16 17
M  V30 14 1 16 18
M  V30 15 1 16 19
M  V30 16 1 16 20
M  V30 17 1 21 22
M  V30 18 1 21 23
M  V30 19 1 21 24
M  V30 20 1 21 25
M  V30 21 1 26 27
M  V30 22 1 26 28
M  V30 23 1 26 29
M  V30 24 1 26 30
M  V30 25 1 31 32
M  V30 26 1 31 33
M  V30 27 1 31 34
M  V30 28 1 31 35
M  V30 29 1 36 37
M  V30 30 1 36 38
M  V30 31 1 36 39
M  V30 32 1 36 40
M  V30 33 1 41 42
M  V30 34 1 41 43
M  V30 35 1 41 44
M  V30 36 1 41 45
M  V30 37 1 46 47
M  V30 38 1 47 48
M  V30 39 1 49 50
M  V30 40 1 50 51
M  V30 41 1 52 53
M  V30 42 1 53 54
M  V30 43 1 55 56
M  V30 44 1 56 57
M  V30 45 1 58 59
M  V30 46 1 59 60
M  V30 47 1 61 62
M  V30 48 1 62 63
M  V30 49 1 64 65
M  V30 50 1 65 66
M  V30 51 1 67 68
M  V30 52 1 68 69
M  V30 53 1 70 71
M  V30 54 1 71 72
M  V30 55 1 73 74
M  V30 56 1 74 75
M  V30 57 1 76 77
M  V30 58 1 77 78
M  V30 59 1 79 80
M  V30 60 1 80 81
M  V30 61 1 82 83
M  V30 62 1 83 84
M  V30 63 1 85 86
M  V30 64 1 86 87
M  V30 65 1 88 89
M  V30 66 1 89 90
M  V30 67 1 91 92
M  V30 68 1 92 93
M  V30 69 1 94 95
M  V30 70 1 95 96
M  V30 71 1 97 98
M  V30 72 1 98 99
M  V30 73 1 2 49
M  V30 74 1 3 70
M  V30 75 1 4 64
M  V30 76 1 5 67
M  V30 77 1 7 46
M  V30 78 1 8 82
M  V30 79 1 9 61
M  V30 80 1 10 55
M  V30 81 1 12 58
M  V30 82 1 13 97
M  V30 83 1 14 88
M  V30 84 1 15 79
M  V30 85 1 17 90
M  V30 86 1 18 76
M  V30 87 1 19 73
M  V30 88 1 20 85
M  V30 89 1 22 48
M  V30 90 1 23 99
M  V30 91 1 24 75
M  V30 92 1 25 52
M  V30 93 1 27 78
M  V30 94 1 28 94
M  V30 95 1 29 66
M  V30 96 1 30 87
M  V30 97 1 32 51
M  V30 98 1 33 96
M  V30 99 1 34 81
M  V30 100 1 35 60
M  V30 101 1 37 54
M  V30 102 1 38 91
M  V30 103 1 39 63
M  V30 104 1 40 69
M  V30 105 1 42 84
M  V30 106 1 43 72
M  V30 107 1 44 93
M  V30 108 1 45 57
M  V30 END BOND
M  V30 END CTAB
M  END

$$$$
