
     RDKit          3D

  0  0  0  0  0  0  0  0  0  0999 V3000
M  V30 BEGIN CTAB
M  V30 COUNTS 99 108 0 0 0
M  V30 BEGIN ATOM
M  V30 1 Pd 5.4642 3.1758 -4.0825 0
M  V30 2 Pb 5.0859 2.5704 -4.7834 0
M  V30 3 Pb 5.7319 3.7784 -3.3283 0
M  V30 4 Pb 6.1370 2.4783 -3.8227 0
M  V30 5 Pb 4.7792 3.8690 -4.3082 0
M  V30 6 Pd -5.0289 -5.2727 -0.1610 0
M  V30 7 Pb -4.3279 -5.9655 0.0704 0
M  V30 8 Pb -5.5998 -5.6490 0.5626 0
M  V30 9 Pb -4.4992 -4.9639 -0.9530 0
M  V30 10 Pb -5.6324 -4.4816 -0.2481 0
M  V30 11 Pd 1.1705 1.2635 1.4259 0
M  V30 12 Pb 1.1753 0.6325 2.1974 0
M  V30 13 Pb 1.0668 1.7572 2.2856 0
M  V30 14 Pb 2.1739 1.3095 1.4772 0
M  V30 15 Pb 1.3052 1.3467 0.4391 0
M  V30 16 Pd -1.8104 -6.4167 4.3302 0
M  V30 17 Pb -2.5959 -6.9550 4.6199 0
M  V30 18 Pb -1.7586 -6.0107 5.2374 0
M  V30 19 Pb -1.1046 -5.7611 4.0183 0
M  V30 20 Pb -1.9509 -6.7485 3.3811 0
M  V30 21 Pd 5.2143 -1.3078 -1.1612 0
M  V30 22 Pb 4.8732 -1.8925 -0.4260 0
M  V30 23 Pb 5.9782 -0.8840 -1.6514 0
M  V30 24 Pb 4.2153 -1.3620 -1.0665 0
M  V30 25 Pb 5.1793 -0.5456 -0.5061 0
M  V30 26 Pd 1.2624 7.2692 -0.0617 0
M  V30 27 Pb 2.2594 7.1668 -0.0406 0
M  V30 28 Pb 0.2632 7.2373 -0.1199 0
M  V30 29 Pb 1.1981 7.0998 0.9205 0
M  V30 30 Pb 1.3440 7.2952 -1.0565 0
M  V30 31 Pd -4.7535 2.4055 0.0751 0
M  V30 32 Pb -5.2232 1.5222 0.1380 0
M  V30 33 Pb -4.9756 2.3787 -0.8975 0
M  V30 34 Pb -4.4114 2.3569 1.0163 0
M  V30 35 Pb -4.3421 3.3173 -0.0151 0
M  V30 36 Pd -1.1418 -0.7856 3.1142 0
M  V30 37 Pb -1.6716 0.0701 3.0804 0
M  V30 38 Pb -0.8505 -0.7456 2.1569 0
M  V30 39 Pb -0.6658 -1.6806 3.1712 0
M  V30 40 Pb -1.3502 -0.8580 4.0851 0
M  V30 41 Pd -0.4260 -0.3561 -3.7562 0
M  V30 42 Pb -0.9328 -1.1882 -3.9725 0
M  V30 43 Pb 0.1180 -0.3523 -4.5931 0
M  V30 44 Pb -1.3000 -0.2174 -4.2153 0
M  V30 45 Pb 0.3426 0.1058 -3.3236 0
M  V30 46 Ag -5.9112 -6.0013 1.1373 0
M  V30 47 Fe -5.0321 -6.8643 3.1457 0
M  V30 48 Ag -3.2830 -7.2224 4.6812 0
M  V30 49 Ag 1.3506 0.0167 2.5707 0
M  V30 50 Fe 2.9612 -1.5023 1.7544 0
M  V30 51 Ag 4.5794 -2.2062 0.1848 0
M  V30 52 Ag -1.7575 -5.5424 5.8119 0
M  V30 53 Fe -1.6440 -3.1875 5.7953 0
M  V30 54 Ag -1.4546 -1.0624 4.7911 0
M  V30 55 Ag 4.2677 4.4097 -4.4017 0
M  V30 56 Fe 2.8136 5.8824 -3.2384 0
M  V30 57 Ag 1.4808 7.2061 -1.7869 0
M  V30 58 Ag 1.0151 2.2994 2.7942 0
M  V30 59 Fe 1.0441 4.6563 2.5634 0
M  V30 60 Ag 1.1397 6.8240 1.6128 0
M  V30 61 Ag 5.8092 4.2641 -2.7590 0
M  V30 62 Fe 4.5318 5.6908 -1.3486 0
M  V30 63 Ag 2.9928 7.0094 -0.1039 0
M  V30 64 Ag 4.7114 2.1202 -5.2521 0
M  V30 65 Fe 2.7096 0.8523 -5.3971 0
M  V30 66 Ag 0.6363 -0.2713 -5.1267 0
M  V30 67 Ag -0.4811 7.1416 -0.1639 0
M  V30 68 Fe -2.2816 5.5878 -0.1217 0
M  V30 69 Ag -4.0672 4.0170 -0.0770 0
M  V30 70 Ag 3.4626 -1.3143 -1.0276 0
M  V30 71 Fe 1.4382 -1.0549 0.1961 0
M  V30 72 Ag -0.5582 -0.8003 1.4658 0
M  V30 73 Ag -4.1369 -4.7627 -1.5803 0
M  V30 74 Fe -2.7377 -3.3131 -2.8385 0
M  V30 75 Ag -1.3298 -1.8196 -4.0338 0
M  V30 76 Ag -6.0184 -3.8392 -0.2336 0
M  V30 77 Fe -5.8435 -1.4744 -0.0714 0
M  V30 78 Ag -5.6243 0.8861 0.0992 0
M  V30 79 Ag -5.0364 2.2344 -1.6279 0
M  V30 80 Fe -3.7203 1.1504 -3.2730 0
M  V30 81 Ag -1.9816 0.0134 -4.4117 0
M  V30 82 Ba -0.5834 -5.2517 3.7928 0
M  V30 83 Ga -0.4906 -3.7896 3.5074 0
M  V30 84 Ba -0.2861 -2.3442 3.1970 0
M  V30 85 Ba -4.0933 2.3383 1.6987 0
M  V30 86 Ga -3.0942 1.4878 2.3877 0
M  V30 87 Ba -2.1005 0.6909 3.1449 0
M  V30 88 Ba 6.6360 1.9489 -3.6269 0
M  V30 89 Ga 6.5895 0.7052 -2.8284 0
M  V30 90 Ba 6.5287 -0.5363 -2.0273 0
M  V30 91 Ba -3.7837 -6.4565 0.2835 0
M  V30 92 Ga -2.9449 -6.7030 1.4947 0
M  V30 93 Ba -2.0742 -7.0043 2.6704 0
M  V30 94 Ba 2.9287 1.3498 1.4754 0
M  V30 95 Ga 4.0244 0.6728 0.7398 0
M  V30 96 Ba 5.1291 0.0034 0.0109 0
M  V30 97 Ba 1.5271 1.4106 -0.2746 0
M  V30 98 Ga 1.1761 0.9397 -1.6250 0
M  V30 99 Ba 0.8817 0.5084 -3.0020 0
M  V30 END ATOM
M  V30 BEGIN BOND
M  V30 1 1 1 2
M  V30 2 1 1 3
M  V30 3 1 1 4
M  V30 4 1 1 5
M  V30 5 1 6 7
M  V30 6 1 6 8
M  V30 7 1 6 9
M  V30 8 1 6 10
M  V30 9 1 11 12
M  V30 10 1 11 13
M  V30 11 1 11 14
M  V30 12 1 11 15
M  V30 13 1 16 17
M  V30 14 1 16 18
M  V30 15 1 16 19
M  V30 16 1 16 20
M  V30 17 1 21 22
M  V30 18 1 21 23
M  V30 19 1 21 24
M  V30 20 1 21 25
M  V30 21 1 26 27
M  V30 22 1 26 28
M  V30 23 1 26 29
M  V30 24 1 26 30
M  V30 25 1 31 32
M  V30 26 1 31 33
M  V30 27 1 31 34
M  V30 28 1 31 35
M  V30 29 1 36 37
M  V30 30 1 36 38
M  V30 31 1 36 39
M  V30 32 1 36 40
M  V30 33 1 41 42
M  V30 34 1 41 43
M  V30 35 1 41 44
M  V30 36 1 41 45
M  V30 37 1 46 47
M  V30 38 1 47 48
M  V30 39 1 49 50
M  V30 40 1 50 51
M  V30 41 1 52 53
M  V30 42 1 53 54
M  V30 43 1 55 56
M  V30 44 1 56 57
M  V30 45 1 58 59
M  V30 46 1 59 60
M  V30 47 1 61 62
M  V30 48 1 62 63
M  V30 49 1 64 65
M  V30 50 1 65 66
M  V30 51 1 67 68
M  V30 52 1 68 69
M  V30 53 1 70 71
M  V30 54 1 71 72
M  V30 55 1 73 74
M  V30 56 1 74 75
M  V30 57 1 76 77
M  V30 58 1 77 78
M  V30 59 1 79 80
M  V30 60 1 80 81
M  V30 61 1 82 83
M  V30 62 1 83 84
M  V30 63 1 85 86
M  V30 64 1 86 87
M  V30 65 1 88 89
M  V30 66 1 89 90
M  V30 67 1 91 92
M  V30 68 1 92 93
M  V30 69 1 94 95
M  V30 70 1 95 96
M  V30 71 1 97 98
M  V30 72 1 98 99
M  V30 73 1 2 64
M  V30 74 1 3 61
M  V30 75 1 4 88
M  V30 76 1 5 55
M  V30 77 1 7 91
M  V30 78 1 8 46
M  V30 79 1 9 73
M  V30 80 1 10 76
M  V30 81 1 12 49
M  V30 82 1 13 58
M  V30 83 1 14 94
M  V30 84 1 15 97
M  V30 85 1 17 48
M  V30 86 1 18 52
M  V30 87 1 19 82
M  V30 88 1 20 93
M  V30 89 1 22 51
M  V30 90 1 23 90
M  V30 91 1 24 70
M  V30 92 1 25 96
M  V30 93 1 27 63
M  V30 94 1 28 67
M  V30 95 1 29 60
M  V30 96 1 30 57
M  V30 97 1 32 78
M  V30 98 1 33 79
M  V30 99 1 34 85
M  V30 100 1 35 69
M  V30 101 1 37 87
M  V30 102 1 38 72
M  V30 103 1 39 84
M  V30 104 1 40 54
M  V30 105 1 42 75
M  V30 106 1 43 66
M  V30 107 1 44 81
M  V30 108 1 45 99
M  V30 END BOND
M  V30 END CTAB
M  END

$$$$
