
     RDKit          3D

  0  0  0  0  0  0  0  0  0  0999 V3000
M  V30 BEGIN CTAB
M  V30 COUNTS 99 108 0 0 0
M  V30 BEGIN ATOM
M  V30 1 Pd 2.4323 5.9417 4.8133 0
M  V30 2 Pb 2.2198 5.3983 4.0033 0
M  V30 3 Pb 2.1666 6.7656 4.3126 0
M  V30 4 Pb 2.2527 5.1440 5.4138 0
M  V30 5 Pb 2.6535 6.5004 5.6107 0
M  V30 6 Pd 2.0719 3.1842 -2.1020 0
M  V30 7 Pb 1.9970 4.0804 -1.6716 0
M  V30 8 Pb 3.0616 3.1784 -1.9666 0
M  V30 9 Pb 1.0644 3.1596 -2.1503 0
M  V30 10 Pb 2.1043 2.2711 -2.5113 0
M  V30 11 Pd -0.4392 -6.3505 -2.7118 0
M  V30 12 Pb 0.2880 -5.6728 -2.6154 0
M  V30 13 Pb -0.9825 -5.8245 -2.0526 0
M  V30 14 Pb -1.1420 -7.0566 -2.8465 0
M  V30 15 Pb 0.0793 -6.7831 -3.4467 0
M  V30 16 Pd -2.4412 -2.4685 -4.2092 0
M  V30 17 Pb -2.4802 -2.5500 -3.2139 0
M  V30 18 Pb -3.4221 -2.6347 -4.2614 0
M  V30 19 Pb -1.4707 -2.2282 -4.1593 0
M  V30 20 Pb -2.3723 -2.6428 -5.2058 0
M  V30 21 Pd 4.1332 1.2987 1.9770 0
M  V30 22 Pb 3.5869 0.8614 2.6899 0
M  V30 23 Pb 4.6516 1.7152 1.2300 0
M  V30 24 Pb 3.5145 2.0843 1.9776 0
M  V30 25 Pb 4.6682 0.4564 1.9086 0
M  V30 26 Pd -2.1988 5.1603 6.6660 0
M  V30 27 Pb -1.4457 4.5206 6.8954 0
M  V30 28 Pb -2.6099 4.5031 6.0311 0
M  V30 29 Pb -2.6042 5.9390 6.1873 0
M  V30 30 Pb -1.8648 5.7872 7.3662 0
M  V30 31 Pd 1.8149 -2.7972 1.0790 0
M  V30 32 Pb 2.8107 -2.8046 1.1807 0
M  V30 33 Pb 0.8258 -2.6882 0.9762 0
M  V30 34 Pb 1.7521 -2.3942 1.9901 0
M  V30 35 Pb 1.9058 -3.1360 0.1429 0
M  V30 36 Pd -2.6323 -7.0960 -6.8554 0
M  V30 37 Pb -3.6184 -6.9526 -6.8780 0
M  V30 38 Pb -2.7629 -7.8535 -6.2196 0
M  V30 39 Pb -1.6476 -7.2477 -6.7842 0
M  V30 40 Pb -2.4932 -6.1703 -7.2408 0
M  V30 41 Pd -2.6316 2.9548 1.2752 0
M  V30 42 Pb -2.2908 2.9866 0.3234 0
M  V30 43 Pb -2.9701 2.9160 2.2158 0
M  V30 44 Pb -2.7821 1.9709 1.1757 0
M  V30 45 Pb -2.3685 3.9110 1.3724 0
M  V30 46 Ag 1.7907 4.6878 -1.2948 0
M  V30 47 Fe -0.0425 5.0905 0.1384 0
M  V30 48 Ag -2.0081 4.5593 1.3338 0
M  V30 49 Ag 1.6791 7.2839 4.0743 0
M  V30 50 Fe -0.6253 7.3315 4.6505 0
M  V30 51 Ag -2.5829 6.5410 5.7401 0
M  V30 52 Ag 2.6276 6.8842 6.2440 0
M  V30 53 Fe 0.7205 6.9929 7.6084 0
M  V30 54 Ag -1.4941 6.2409 7.8218 0
M  V30 55 Ag 2.0815 1.5803 -2.8054 0
M  V30 56 Fe 0.7188 -0.2465 -3.4785 0
M  V30 57 Ag -0.7574 -1.9979 -4.1114 0
M  V30 58 Ag -4.1159 -2.8581 -4.3983 0
M  V30 59 Fe -4.8599 -4.7470 -5.5852 0
M  V30 60 Ag -4.3062 -6.7014 -6.7682 0
M  V30 61 Ag 0.0958 -2.5220 0.9250 0
M  V30 62 Fe -1.4618 -0.7296 0.9901 0
M  V30 63 Ag -2.8072 1.2255 1.0929 0
M  V30 64 Ba -2.9720 3.9877 5.6200 0
M  V30 65 Ga -3.0606 3.4616 4.2434 0
M  V30 66 Ba -3.2430 2.8503 2.9117 0
M  V30 67 Ba 3.7909 3.1466 -1.7997 0
M  V30 68 Ga 4.4528 2.6039 -0.5997 0
M  V30 69 Ba 4.9978 2.0311 0.6444 0
M  V30 70 Ba 1.9699 4.5954 5.8729 0
M  V30 71 Ga 0.5990 4.3429 6.4371 0
M  V30 72 Ba -0.7879 4.1305 6.9782 0
M  V30 73 Ba -1.3567 -5.3412 -1.6116 0
M  V30 74 Ga -1.9516 -4.0334 -1.9627 0
M  V30 75 Ba -2.4907 -2.7633 -2.4946 0
M  V30 76 Ba 2.0581 5.0188 3.3791 0
M  V30 77 Ga 2.5627 3.8206 2.6844 0
M  V30 78 Ba 3.0089 2.6364 1.9286 0
M  V30 79 Ba -1.6136 -7.6229 -3.0144 0
M  V30 80 Ga -2.2559 -8.0269 -4.2851 0
M  V30 81 Ba -2.8339 -8.2970 -5.6200 0
M  V30 82 Ba 3.1661 0.4851 3.1818 0
M  V30 83 Ga 2.4279 -0.7746 2.9935 0
M  V30 84 Ba 1.7483 -2.0332 2.6453 0
M  V30 85 Ba 0.3063 3.1377 -2.1824 0
M  V30 86 Ga -0.8499 3.0751 -1.2481 0
M  V30 87 Ba -2.0748 3.0129 -0.4060 0
M  V30 88 Ba 0.4117 -7.0594 -4.0569 0
M  V30 89 Ga -0.1782 -7.2536 -5.3913 0
M  V30 90 Ba -0.9235 -7.3860 -6.6537 0
M  V30 91 Ba -2.3199 -2.8501 -5.9409 0
M  V30 92 Ga -2.3615 -4.1441 -6.6908 0
M  V30 93 Ba -2.4033 -5.4380 -7.4408 0
M  V30 94 Ba 0.8462 -5.1761 -2.5670 0
M  V30 95 Ga 1.4033 -4.2741 -1.5430 0
M  V30 96 Ba 2.0102 -3.3505 -0.5679 0
M  V30 97 Ba 4.9882 -0.2186 1.8373 0
M  V30 98 Ga 4.3396 -1.5146 1.5565 0
M  V30 99 Ba 3.5525 -2.7309 1.2732 0
M  V30 END ATOM
M  V30 BEGIN BOND
M  V30 1 1 1 2
M  V30 2 1 1 3
M  V30 3 1 1 4
M  V30 4 1 1 5
M  V30 5 1 6 7
M  V30 6 1 6 8
M  V30 7 1 6 9
M  V30 8 1 6 10
M  V30 9 1 11 12
M  V30 10 1 11 13
M  V30 11 1 11 14
M  V30 12 1 11 15
M  V30 13 1 16 17
M  V30 14 1 16 18
M  V30 15 1 16 19
M  V30 16 1 16 20
M  V30 17 1 21 22
M  V30 18 1 21 23
M  V30 19 1 21 24
M  V30 20 1 21 25
M  V30 21 1 26 27
M  V30 22 1 26 28
M  V30 23 1 26 29
M  V30 24 1 26 30
M  V30 25 1 31 32
M  V30 26 1 31 33
M  V30 27 1 31 34
M  V30 28 1 31 35
M  V30 29 1 36 37
M  V30 30 1 36 38
M  V30 31 1 36 39
M  V30 32 1 36 40
M  V30 33 1 41 42
M  V30 34 1 41 43
M  V30 35 1 41 44
M  V30 36 1 41 45
M  V30 37 1 46 47
M  V30 38 1 47 48
M  V30 39 1 49 50
M  V30 40 1 50 51
M  V30 41 1 52 53
M  V30 42 1 53 54
M  V30 43 1 55 56
M  V30 44 1 56 57
M  V30 45 1 58 59
M  V30 46 1 59 60
M  V30 47 1 61 62
M  V30 48 1 62 63
M  V30 49 1 64 65
M  V30 50 1 65 66
M  V30 51 1 67 68
M  V30 52 1 68 69
M  V30 53 1 70 71
M  V30 54 1 71 72
M  V30 55 1 73 74
M  V30 56 1 74 75
M  V30 57 1 76 77
M  V30 58 1 77 78
M  V30 59 1 79 80
M  V30 60 1 80 81
M  V30 61 1 82 83
M  V30 62 1 83 84
M  V30 63 1 85 86
M  V30 64 1 86 87
M  V30 65 1 88 89
M  V30 66 1 89 90
M  V30 67 1 91 92
M  V30 68 1 92 93
M  V30 69 1 94 95
M  V30 70 1 95 96
M  V30 71 1 97 98
M  V30 72 1 98 99
M  V30 73 1 2 76
M  V30 74 1 3 49
M  V30 75 1 4 70
M  V30 76 1 5 52
M  V30 77 1 7 46
M  V30 78 1 8 67
M  V30 79 1 9 85
M  V30 80 1 10 55
M  V30 81 1 12 94
M  V30 82 1 13 73
M  V30 83 1 14 79
M  V30 84 1 15 88
M  V30 85 1 17 75
M  V30 86 1 18 58
M  V30 87 1 19 57
M  V30 88 1 20 91
M  V30 89 1 22 82
M  V30 90 1 23 69
M  V30 91 1 24 78
M  V30 92 1 25 97
M  V30 93 1 27 72
M  V30 94 1 28 64
M  V30 95 1 29 51
M  V30 96 1 30 54
M  V30 97 1 32 99
M  V30 98 1 33 61
M  V30 99 1 34 84
M  V30 100 1 35 96
M  V30 101 1 37 60
M  V30 102 1 38 81
M  V30 103 1 39 90
M  V30 104 1 40 93
M  V30 105 1 42 87
M  V30 106 1 43 66
M  V30 107 1 44 63
M  V30 108 1 45 48
M  V30 END BOND
M  V30 END CTAB
M  END

$$$$
