
     RDKit          3D

  0  0  0  0  0  0  0  0  0  0999 V3000
M  V30 BEGIN CTAB
M  V30 COUNTS 99 108 0 0 0
M  V30 BEGIN ATOM
M  V30 1 Pd 4.3456 -0.1807 -0.7039 0
M  V30 2 Pb 4.8889 -1.0179 -0.7445 0
M  V30 3 Pb 3.7373 0.6098 -0.6088 0
M  V30 4 Pb 4.8565 0.1215 0.1008 0
M  V30 5 Pb 3.8243 -0.5122 -1.4907 0
M  V30 6 Pd -1.9990 7.0791 -2.6901 0
M  V30 7 Pb -2.5553 6.4423 -2.1504 0
M  V30 8 Pb -1.4749 7.7432 -3.2159 0
M  V30 9 Pb -2.4727 6.8087 -3.5259 0
M  V30 10 Pb -1.3484 7.2038 -1.9222 0
M  V30 11 Pd -2.7522 -6.8115 1.4870 0
M  V30 12 Pb -2.4965 -7.2729 0.6428 0
M  V30 13 Pb -3.5173 -6.3466 1.0406 0
M  V30 14 Pb -2.9962 -6.3346 2.3294 0
M  V30 15 Pb -1.9357 -7.2187 1.9309 0
M  V30 16 Pd -2.9480 0.0434 4.6945 0
M  V30 17 Pb -3.2056 -0.9112 4.8332 0
M  V30 18 Pb -2.0468 -0.1522 5.1157 0
M  V30 19 Pb -3.8397 0.2252 4.2779 0
M  V30 20 Pb -2.6572 0.9826 4.5417 0
M  V30 21 Pd -5.2803 0.1549 -0.3902 0
M  V30 22 Pb -5.0936 1.1401 -0.4221 0
M  V30 23 Pb -5.4620 -0.8298 -0.3524 0
M  V30 24 Pb -5.5284 0.2574 0.5748 0
M  V30 25 Pb -5.0657 0.0505 -1.3614 0
M  V30 26 Pd 3.0503 0.0612 4.4640 0
M  V30 27 Pb 2.1946 -0.1551 4.9617 0
M  V30 28 Pb 3.3502 -0.8869 4.5792 0
M  V30 29 Pb 3.8870 0.2799 3.9611 0
M  V30 30 Pb 2.7212 0.9920 4.3393 0
M  V30 31 Pd 3.0927 -6.9658 1.4643 0
M  V30 32 Pb 3.8565 -6.5363 0.9847 0
M  V30 33 Pb 3.3429 -6.4366 2.2754 0
M  V30 34 Pb 2.2675 -7.3310 1.9270 0
M  V30 35 Pb 2.8173 -7.4505 0.6396 0
M  V30 36 Pd -0.5573 1.1931 -6.2940 0
M  V30 37 Pb -1.4290 0.7571 -6.0817 0
M  V30 38 Pb 0.3335 1.6374 -6.3888 0
M  V30 39 Pb -1.0676 2.0203 -6.5324 0
M  V30 40 Pb -0.0543 0.4047 -5.9478 0
M  V30 41 Pd 3.1349 5.3978 -1.9959 0
M  V30 42 Pb 3.3579 6.2193 -2.5138 0
M  V30 43 Pb 2.8699 4.5739 -1.4925 0
M  V30 44 Pb 3.5307 4.8516 -2.7307 0
M  V30 45 Pb 2.5248 5.9475 -1.4012 0
M  V30 46 Ag -2.9990 5.9977 -1.7350 0
M  V30 47 Fe -3.9442 3.9032 -1.1218 0
M  V30 48 Ag -4.9694 1.8825 -0.3989 0
M  V30 49 Ag 5.2253 -1.6869 -0.7473 0
M  V30 50 Fe 4.9399 -3.9540 -0.1057 0
M  V30 51 Ag 4.3899 -6.1386 0.6412 0
M  V30 52 Ag -4.9234 -0.0584 -2.0899 0
M  V30 53 Fe -3.5297 0.1830 -3.9964 0
M  V30 54 Ag -2.0800 0.4678 -5.8544 0
M  V30 55 Ag -0.9681 8.1715 -3.5475 0
M  V30 56 Fe 1.3775 7.9829 -3.5630 0
M  V30 57 Ag 3.3296 6.8406 -2.9157 0
M  V30 58 Ag -2.1525 -7.6013 0.0733 0
M  V30 59 Fe 0.1427 -7.9283 -0.3584 0
M  V30 60 Ag 2.4551 -7.7655 0.0741 0
M  V30 61 Ag -2.2889 1.6172 4.4328 0
M  V30 62 Fe 0.0207 2.0735 4.2788 0
M  V30 63 Ag 2.3362 1.6213 4.2601 0
M  V30 64 Ag -3.1909 -5.9441 2.9373 0
M  V30 65 Fe -3.3046 -3.8157 3.9803 0
M  V30 66 Ag -3.3653 -1.6372 4.9192 0
M  V30 67 Ag -2.6882 6.5158 -4.1800 0
M  V30 68 Fe -2.2043 4.6249 -5.5325 0
M  V30 69 Ag -1.4919 2.6344 -6.6146 0
M  V30 70 Ag 3.4392 -0.7892 -2.0722 0
M  V30 71 Fe 1.9063 -0.5165 -3.8643 0
M  V30 72 Ag 0.3636 -0.1243 -5.6252 0
M  V30 73 Ag 1.0289 1.9156 -6.3435 0
M  V30 74 Fe 2.4959 3.1697 -4.9605 0
M  V30 75 Ag 3.6699 4.4728 -3.3606 0
M  V30 76 Ag 3.5454 -1.6073 4.6621 0
M  V30 77 Fe 3.5613 -3.8184 3.7929 0
M  V30 78 Ag 3.5372 -6.0010 2.8548 0
M  V30 79 Ag -4.0726 -5.9440 0.7359 0
M  V30 80 Fe -4.8638 -3.7731 0.1796 0
M  V30 81 Ag -5.5876 -1.5713 -0.3460 0
M  V30 82 Ba -4.5175 0.3451 3.9778 0
M  V30 83 Ga -5.1050 0.3459 2.6231 0
M  V30 84 Ba -5.7387 0.3580 1.2894 0
M  V30 85 Ba -1.3973 -0.3243 5.4778 0
M  V30 86 Ga 0.0868 -0.2901 5.3432 0
M  V30 87 Ba 1.5766 -0.3296 5.3733 0
M  V30 88 Ba -1.3310 -7.5319 2.2781 0
M  V30 89 Ga 0.1609 -7.5305 2.2292 0
M  V30 90 Ba 1.6505 -7.6128 2.2786 0
M  V30 91 Ba -0.8107 7.2658 -1.3809 0
M  V30 92 Ga 0.6009 6.8033 -1.2026 0
M  V30 93 Ba 2.0132 6.3523 -1.0012 0
M  V30 94 Ba 5.2275 0.3369 0.7159 0
M  V30 95 Ga 4.8794 0.3974 2.1482 0
M  V30 96 Ba 4.5079 0.4488 3.5750 0
M  V30 97 Ba 3.2434 1.1631 -0.4843 0
M  V30 98 Ga 2.9897 2.5754 -0.8338 0
M  V30 99 Ba 2.6226 3.9802 -1.1044 0
M  V30 END ATOM
M  V30 BEGIN BOND
M  V30 1 1 1 2
M  V30 2 1 1 3
M  V30 3 1 1 4
M  V30 4 1 1 5
M  V30 5 1 6 7
M  V30 6 1 6 8
M  V30 7 1 6 9
M  V30 8 1 6 10
M  V30 9 1 11 12
M  V30 10 1 11 13
M  V30 11 1 11 14
M  V30 12 1 11 15
M  V30 13 1 16 17
M  V30 14 1 16 18
M  V30 15 1 16 19
M  V30 16 1 16 20
M  V30 17 1 21 22
M  V30 18 1 21 23
M  V30 19 1 21 24
M  V30 20 1 21 25
M  V30 21 1 26 27
M  V30 22 1 26 28
M  V30 23 1 26 29
M  V30 24 1 26 30
M  V30 25 1 31 32
M  V30 26 1 31 33
M  V30 27 1 31 34
M  V30 28 1 31 35
M  V30 29 1 36 37
M  V30 30 1 36 38
M  V30 31 1 36 39
M  V30 32 1 36 40
M  V30 33 1 41 42
M  V30 34 1 41 43
M  V30 35 1 41 44
M  V30 36 1 41 45
M  V30 37 1 46 47
M  V30 38 1 47 48
M  V30 39 1 49 50
M  V30 40 1 50 51
M  V30 41 1 52 53
M  V30 42 1 53 54
M  V30 43 1 55 56
M  V30 44 1 56 57
M  V30 45 1 58 59
M  V30 46 1 59 60
M  V30 47 1 61 62
M  V30 48 1 62 63
M  V30 49 1 64 65
M  V30 50 1 65 66
M  V30 51 1 67 68
M  V30 52 1 68 69
M  V30 53 1 70 71
M  V30 54 1 71 72
M  V30 55 1 73 74
M  V30 56 1 74 75
M  V30 57 1 76 77
M  V30 58 1 77 78
M  V30 59 1 79 80
M  V30 60 1 80 81
M  V30 61 1 82 83
M  V30 62 1 83 84
M  V30 63 1 85 86
M  V30 64 1 86 87
M  V30 65 1 88 89
M  V30 66 1 89 90
M  V30 67 1 91 92
M  V30 68 1 92 93
M  V30 69 1 94 95
M  V30 70 1 95 96
M  V30 71 1 97 98
M  V30 72 1 98 99
M  V30 73 1 2 49
M  V30 74 1 3 97
M  V30 75 1 4 94
M  V30 76 1 5 70
M  V30 77 1 7 46
M  V30 78 1 8 55
M  V30 79 1 9 67
M  V30 80 1 10 91
M  V30 81 1 12 58
M  V30 82 1 13 79
M  V30 83 1 14 64
M  V30 84 1 15 88
M  V30 85 1 17 66
M  V30 86 1 18 85
M  V30 87 1 19 82
M  V30 88 1 20 61
M  V30 89 1 22 48
M  V30 90 1 23 81
M  V30 91 1 24 84
M  V30 92 1 25 52
M  V30 93 1 27 87
M  V30 94 1 28 76
M  V30 95 1 29 96
M  V30 96 1 30 63
M  V30 97 1 32 51
M  V30 98 1 33 78
M  V30 99 1 34 90
M  V30 100 1 35 60
M  V30 101 1 37 54
M  V30 102 1 38 73
M  V30 103 1 39 69
M  V30 104 1 40 72
M  V30 105 1 42 57
M  V30 106 1 43 99
M  V30 107 1 44 75
M  V30 108 1 45 93
M  V30 END BOND
M  V30 END CTAB
M  END

$$$$
