
     RDKit          3D

  0  0  0  0  0  0  0  0  0  0999 V3000
M  V30 BEGIN CTAB
M  V30 COUNTS 99 108 0 0 0
M  V30 BEGIN ATOM
M  V30 1 Pd -6.1131 1.4605 -1.8549 0
M  V30 2 Pb -5.2518 1.6271 -2.3255 0
M  V30 3 Pb -6.4596 2.2884 -2.2835 0
M  V30 4 Pb -6.9441 1.4386 -1.2723 0
M  V30 5 Pb -5.7929 0.5915 -1.4641 0
M  V30 6 Pd -8.3426 4.6216 2.2663 0
M  V30 7 Pb -8.0752 4.0688 3.0522 0
M  V30 8 Pb -8.5910 3.7878 1.7420 0
M  V30 9 Pb -8.5745 5.1808 1.4768 0
M  V30 10 Pb -7.9334 5.4164 2.7148 0
M  V30 11 Pd 5.6120 -1.6651 1.9946 0
M  V30 12 Pb 6.3496 -1.1085 1.6129 0
M  V30 13 Pb 4.7958 -2.1753 2.2513 0
M  V30 14 Pb 6.1094 -2.5382 1.9771 0
M  V30 15 Pb 5.1415 -0.7942 2.1281 0
M  V30 16 Pd 6.3167 -6.3648 -0.8966 0
M  V30 17 Pb 5.4167 -6.7551 -0.6913 0
M  V30 18 Pb 7.1031 -5.8330 -1.1803 0
M  V30 19 Pb 6.1349 -6.4988 -1.8629 0
M  V30 20 Pb 6.5069 -6.1026 0.0488 0
M  V30 21 Pd 0.7595 3.8219 -0.0404 0
M  V30 22 Pb 1.3822 3.4568 -0.7364 0
M  V30 23 Pb 0.1817 4.3269 0.6128 0
M  V30 24 Pb 1.4553 3.6897 0.6588 0
M  V30 25 Pb 0.0592 3.8071 -0.7505 0
M  V30 26 Pd -3.6792 4.4296 3.8779 0
M  V30 27 Pb -4.4489 3.9725 4.3203 0
M  V30 28 Pb -3.1830 3.5687 3.9210 0
M  V30 29 Pb -4.2299 5.2670 3.8488 0
M  V30 30 Pb -2.9124 4.8715 3.4040 0
M  V30 31 Pd 5.0509 0.2621 -2.4967 0
M  V30 32 Pb 4.4048 1.0263 -2.4406 0
M  V30 33 Pb 4.4390 -0.1697 -3.1711 0
M  V30 34 Pb 5.6725 0.6222 -1.7956 0
M  V30 35 Pb 5.7483 -0.4380 -2.6101 0
M  V30 36 Pd -1.8856 -2.2282 0.3829 0
M  V30 37 Pb -1.7510 -2.7782 -0.4397 0
M  V30 38 Pb -1.0228 -2.5526 0.7677 0
M  V30 39 Pb -2.8094 -1.9798 0.0718 0
M  V30 40 Pb -1.9639 -1.6540 1.1921 0
M  V30 41 Pd 2.2426 -4.4664 -3.0860 0
M  V30 42 Pb 3.1035 -4.7812 -3.4764 0
M  V30 43 Pb 2.2587 -5.2694 -2.4790 0
M  V30 44 Pb 2.3087 -3.6194 -3.6230 0
M  V30 45 Pb 1.2912 -4.2705 -2.8351 0
M  V30 46 Ag -6.7689 2.9299 -2.4878 0
M  V30 47 Fe -7.8646 4.5921 -1.2332 0
M  V30 48 Ag -8.6475 5.4747 0.8020 0
M  V30 49 Ag -2.8725 2.8931 3.9613 0
M  V30 50 Fe -2.4013 0.8329 2.8899 0
M  V30 51 Ag -1.9436 -1.2194 1.7977 0
M  V30 52 Ag 4.8527 -0.1156 2.2601 0
M  V30 53 Fe 3.4289 1.7107 1.7455 0
M  V30 54 Ag 1.9704 3.4867 1.1579 0
M  V30 55 Ag -4.6127 1.8861 -2.6106 0
M  V30 56 Fe -2.4936 2.7859 -2.0400 0
M  V30 57 Ag -0.4153 3.6678 -1.3121 0
M  V30 58 Ag 7.5416 -5.3095 -1.4633 0
M  V30 59 Fe 7.1446 -3.0733 -2.1203 0
M  V30 60 Ag 6.3171 -0.9189 -2.6386 0
M  V30 61 Ag 4.1589 -2.5498 2.3577 0
M  V30 62 Fe 1.8671 -2.6939 1.7605 0
M  V30 63 Ag -0.4184 -2.8042 1.1323 0
M  V30 64 Ba 6.4332 -3.2147 2.0689 0
M  V30 65 Ga 6.5560 -4.5167 1.3774 0
M  V30 66 Ba 6.7067 -5.8333 0.7199 0
M  V30 67 Ba -1.6509 -3.1739 -1.0674 0
M  V30 68 Ga -0.5068 -3.6650 -1.8618 0
M  V30 69 Ba 0.5456 -4.2088 -2.7434 0
M  V30 70 Ba -7.5321 5.9733 3.0187 0
M  V30 71 Ga -6.1185 5.9726 3.4506 0
M  V30 72 Ba -4.7001 5.8552 3.8497 0
M  V30 73 Ba 3.9625 -0.4779 -3.6733 0
M  V30 74 Ga 3.1872 -1.7342 -3.8258 0
M  V30 75 Ba 2.3986 -2.9776 -4.0113 0
M  V30 76 Ba 5.9870 -6.4809 -2.5901 0
M  V30 77 Ga 4.8633 -5.8100 -3.2523 0
M  V30 78 Ba 3.6977 -5.1033 -3.7947 0
M  V30 79 Ba -7.5640 1.4614 -0.8233 0
M  V30 80 Ga -8.1259 2.3314 0.2562 0
M  V30 81 Ba -8.7475 3.1548 1.3395 0
M  V30 82 Ba -0.1775 4.8008 1.0824 0
M  V30 83 Ga -1.2850 4.9282 2.0587 0
M  V30 84 Ba -2.3441 5.2212 3.0534 0
M  V30 85 Ba -5.6255 -0.0919 -1.1909 0
M  V30 86 Ga -4.5092 -0.9125 -0.6670 0
M  V30 87 Ba -3.5334 -1.8843 -0.1222 0
M  V30 88 Ba -7.8196 3.6889 3.6425 0
M  V30 89 Ga -6.4515 3.6179 4.1791 0
M  V30 90 Ba -5.0460 3.6300 4.6140 0
M  V30 91 Ba 6.7803 -0.5893 1.2818 0
M  V30 92 Ga 6.5415 0.1268 0.0077 0
M  V30 93 Ba 6.2028 0.7746 -1.2803 0
M  V30 94 Ba 1.8255 3.2898 -1.3214 0
M  V30 95 Ga 2.8840 2.3846 -1.8150 0
M  V30 96 Ba 3.9322 1.6075 -2.5088 0
M  V30 97 Ba 4.7002 -6.9803 -0.6286 0
M  V30 98 Ga 3.4850 -6.4484 -1.2928 0
M  V30 99 Ba 2.3252 -5.8522 -2.0003 0
M  V30 END ATOM
M  V30 BEGIN BOND
M  V30 1 1 1 2
M  V30 2 1 1 3
M  V30 3 1 1 4
M  V30 4 1 1 5
M  V30 5 1 6 7
M  V30 6 1 6 8
M  V30 7 1 6 9
M  V30 8 1 6 10
M  V30 9 1 11 12
M  V30 10 1 11 13
M  V30 11 1 11 14
M  V30 12 1 11 15
M  V30 13 1 16 17
M  V30 14 1 16 18
M  V30 15 1 16 19
M  V30 16 1 16 20
M  V30 17 1 21 22
M  V30 18 1 21 23
M  V30 19 1 21 24
M  V30 20 1 21 25
M  V30 21 1 26 27
M  V30 22 1 26 28
M  V30 23 1 26 29
M  V30 24 1 26 30
M  V30 25 1 31 32
M  V30 26 1 31 33
M  V30 27 1 31 34
M  V30 28 1 31 35
M  V30 29 1 36 37
M  V30 30 1 36 38
M  V30 31 1 36 39
M  V30 32 1 36 40
M  V30 33 1 41 42
M  V30 34 1 41 43
M  V30 35 1 41 44
M  V30 36 1 41 45
M  V30 37 1 46 47
M  V30 38 1 47 48
M  V30 39 1 49 50
M  V30 40 1 50 51
M  V30 41 1 52 53
M  V30 42 1 53 54
M  V30 43 1 55 56
M  V30 44 1 56 57
M  V30 45 1 58 59
M  V30 46 1 59 60
M  V30 47 1 61 62
M  V30 48 1 62 63
M  V30 49 1 64 65
M  V30 50 1 65 66
M  V30 51 1 67 68
M  V30 52 1 68 69
M  V30 53 1 70 71
M  V30 54 1 71 72
M  V30 55 1 73 74
M  V30 56 1 74 75
M  V30 57 1 76 77
M  V30 58 1 77 78
M  V30 59 1 79 80
M  V30 60 1 80 81
M  V30 61 1 82 83
M  V30 62 1 83 84
M  V30 63 1 85 86
M  V30 64 1 86 87
M  V30 65 1 88 89
M  V30 66 1 89 90
M  V30 67 1 91 92
M  V30 68 1 92 93
M  V30 69 1 94 95
M  V30 70 1 95 96
M  V30 71 1 97 98
M  V30 72 1 98 99
M  V30 73 1 2 55
M  V30 74 1 3 46
M  V30 75 1 4 79
M  V30 76 1 5 85
M  V30 77 1 7 88
M  V30 78 1 8 81
M  V30 79 1 9 48
M  V30 80 1 10 70
M  V30 81 1 12 91
M  V30 82 1 13 61
M  V30 83 1 14 64
M  V30 84 1 15 52
M  V30 85 1 17 97
M  V30 86 1 18 58
M  V30 87 1 19 76
M  V30 88 1 20 66
M  V30 89 1 22 94
M  V30 90 1 23 82
M  V30 91 1 24 54
M  V30 92 1 25 57
M  V30 93 1 27 90
M  V30 94 1 28 49
M  V30 95 1 29 72
M  V30 96 1 30 84
M  V30 97 1 32 96
M  V30 98 1 33 73
M  V30 99 1 34 93
M  V30 100 1 35 60
M  V30 101 1 37 67
M  V30 102 1 38 63
M  V30 103 1 39 87
M  V30 104 1 40 51
M  V30 105 1 42 78
M  V30 106 1 43 99
M  V30 107 1 44 75
M  V30 108 1 45 69
M  V30 END BOND
M  V30 END CTAB
M  END

$$$$
