
     RDKit          3D

  0  0  0  0  0  0  0  0  0  0999 V3000
M  V30 BEGIN CTAB
M  V30 COUNTS 99 108 0 0 0
M  V30 BEGIN ATOM
M  V30 1 Pd -3.5682 1.3548 -1.3435 0
M  V30 2 Pb -4.1872 0.6463 -1.0090 0
M  V30 3 Pb -2.9680 0.6310 -1.6876 0
M  V30 4 Pb -4.1597 2.0372 -0.9158 0
M  V30 5 Pb -2.9273 2.0864 -1.5946 0
M  V30 6 Pd 1.9288 -1.6108 -6.8687 0
M  V30 7 Pb 2.4829 -1.6508 -6.0333 0
M  V30 8 Pb 1.4588 -2.4652 -6.5939 0
M  V30 9 Pb 2.2587 -0.6944 -7.0996 0
M  V30 10 Pb 1.4189 -1.6344 -7.7257 0
M  V30 11 Pd 2.2833 -3.0046 5.5542 0
M  V30 12 Pb 1.9219 -3.7662 5.0353 0
M  V30 13 Pb 3.1460 -3.1089 5.0622 0
M  V30 14 Pb 2.7339 -2.2848 6.0876 0
M  V30 15 Pb 1.3548 -2.8475 5.9657 0
M  V30 16 Pd 3.5213 2.0268 4.7283 0
M  V30 17 Pb 3.9601 1.4200 5.3868 0
M  V30 18 Pb 2.6941 1.8938 5.2582 0
M  V30 19 Pb 4.3617 2.1744 4.2040 0
M  V30 20 Pb 2.9800 2.5863 4.0944 0
M  V30 21 Pd 5.6429 0.4222 -0.0916 0
M  V30 22 Pb 5.3660 -0.1950 -0.8307 0
M  V30 23 Pb 5.7848 -0.3557 0.5200 0
M  V30 24 Pb 5.9153 1.0357 0.6507 0
M  V30 25 Pb 5.4654 1.2027 -0.6884 0
M  V30 26 Pd -3.6562 2.6947 3.6759 0
M  V30 27 Pb -3.0675 2.4315 4.4287 0
M  V30 28 Pb -4.3743 2.1834 4.1435 0
M  V30 29 Pb -4.2457 2.9702 2.9146 0
M  V30 30 Pb -2.8573 3.1316 3.2523 0
M  V30 31 Pd -3.6723 -2.4978 4.6802 0
M  V30 32 Pb -4.3353 -2.4659 3.9353 0
M  V30 33 Pb -4.1257 -1.6855 5.0573 0
M  V30 34 Pb -2.8969 -2.4862 5.3535 0
M  V30 35 Pb -3.3104 -3.3293 4.2831 0
M  V30 36 Pd 0.5218 3.2001 -4.8931 0
M  V30 37 Pb 1.4026 3.4045 -4.4693 0
M  V30 38 Pb -0.3771 2.9781 -5.2680 0
M  V30 39 Pb 1.0265 2.8647 -5.6945 0
M  V30 40 Pb 0.0386 3.5045 -4.0721 0
M  V30 41 Pd -3.0936 -2.6018 -5.4081 0
M  V30 42 Pb -2.3510 -3.2799 -5.4769 0
M  V30 43 Pb -2.7340 -2.3350 -4.5128 0
M  V30 44 Pb -3.6220 -1.7605 -5.4458 0
M  V30 45 Pb -3.3465 -2.7834 -6.3557 0
M  V30 46 Ag 2.9117 -1.7575 -5.4234 0
M  V30 47 Fe 4.0108 -1.1390 -3.4076 0
M  V30 48 Ag 5.1628 -0.6635 -1.3825 0
M  V30 49 Ag -4.6180 0.1282 -0.6835 0
M  V30 50 Fe -4.8309 -1.2025 1.2688 0
M  V30 51 Ag -4.7560 -2.3876 3.3223 0
M  V30 52 Ag 5.2953 1.7750 -1.1396 0
M  V30 53 Fe 3.7197 2.7057 -2.6504 0
M  V30 54 Ag 2.0644 3.5241 -4.1409 0
M  V30 55 Ag 2.0571 1.8066 5.6264 0
M  V30 56 Fe -0.2924 1.9777 5.4417 0
M  V30 57 Ag -2.5914 2.2398 4.9627 0
M  V30 58 Ag 0.9413 -1.7306 -8.2878 0
M  V30 59 Fe -1.3396 -2.3201 -8.2887 0
M  V30 60 Ag -3.3083 -2.8116 -7.0950 0
M  V30 61 Ag 1.5644 -4.2912 4.6621 0
M  V30 62 Fe -0.6948 -4.5575 4.0784 0
M  V30 63 Ag -2.9532 -3.9160 4.0170 0
M  V30 64 Ag 2.4862 2.9636 3.6665 0
M  V30 65 Fe 0.1630 3.2654 3.2418 0
M  V30 66 Ag -2.2011 3.4006 2.9942 0
M  V30 67 Ag -1.0819 2.7909 -5.4395 0
M  V30 68 Fe -2.6363 1.0032 -5.5407 0
M  V30 69 Ag -3.8209 -1.0499 -5.5405 0
M  V30 70 Ag 3.7652 -3.1322 4.6420 0
M  V30 71 Fe 4.8929 -2.0941 2.8295 0
M  V30 72 Ag 5.8591 -0.9224 1.0050 0
M  V30 73 Ba 4.9903 2.3062 3.8138 0
M  V30 74 Ga 5.5482 1.8880 2.5123 0
M  V30 75 Ba 6.1261 1.4836 1.2151 0
M  V30 76 Ba 0.6575 -2.7285 6.2881 0
M  V30 77 Ga -0.8156 -2.6158 5.9888 0
M  V30 78 Ba -2.3114 -2.4760 5.8642 0
M  V30 79 Ba 1.0704 -3.0880 -6.3829 0
M  V30 80 Ga -0.3285 -3.4020 -5.9703 0
M  V30 81 Ba -1.7292 -3.7093 -5.5584 0
M  V30 82 Ba 3.1758 -1.7950 6.4523 0
M  V30 83 Ga 3.6840 -0.4302 6.2052 0
M  V30 84 Ba 4.1616 0.9389 5.9234 0
M  V30 85 Ba 2.4201 0.0166 -7.2824 0
M  V30 86 Ga 1.9469 1.3221 -6.7707 0
M  V30 87 Ba 1.4693 2.6254 -6.2572 0
M  V30 88 Ba -4.5977 2.5165 -0.5417 0
M  V30 89 Ga -4.6534 2.8739 0.8890 0
M  V30 90 Ba -4.6626 3.1921 2.3300 0
M  V30 91 Ba -2.4711 2.6770 -1.7066 0
M  V30 92 Ga -1.4063 3.1618 -2.6100 0
M  V30 93 Ba -0.3373 3.7254 -3.4615 0
M  V30 94 Ba -2.5379 0.0424 -1.8703 0
M  V30 95 Ga -2.4971 -1.0199 -2.8958 0
M  V30 96 Ba -2.3895 -2.1136 -3.8828 0
M  V30 97 Ba -4.8131 1.7519 4.5707 0
M  V30 98 Ga -4.7014 0.3225 4.9308 0
M  V30 99 Ba -4.5599 -1.1082 5.2756 0
M  V30 END ATOM
M  V30 BEGIN BOND
M  V30 1 1 1 2
M  V30 2 1 1 3
M  V30 3 1 1 4
M  V30 4 1 1 5
M  V30 5 1 6 7
M  V30 6 1 6 8
M  V30 7 1 6 9
M  V30 8 1 6 10
M  V30 9 1 11 12
M  V30 10 1 11 13
M  V30 11 1 11 14
M  V30 12 1 11 15
M  V30 13 1 16 17
M  V30 14 1 16 18
M  V30 15 1 16 19
M  V30 16 1 16 20
M  V30 17 1 21 22
M  V30 18 1 21 23
M  V30 19 1 21 24
M  V30 20 1 21 25
M  V30 21 1 26 27
M  V30 22 1 26 28
M  V30 23 1 26 29
M  V30 24 1 26 30
M  V30 25 1 31 32
M  V30 26 1 31 33
M  V30 27 1 31 34
M  V30 28 1 31 35
M  V30 29 1 36 37
M  V30 30 1 36 38
M  V30 31 1 36 39
M  V30 32 1 36 40
M  V30 33 1 41 42
M  V30 34 1 41 43
M  V30 35 1 41 44
M  V30 36 1 41 45
M  V30 37 1 46 47
M  V30 38 1 47 48
M  V30 39 1 49 50
M  V30 40 1 50 51
M  V30 41 1 52 53
M  V30 42 1 53 54
M  V30 43 1 55 56
M  V30 44 1 56 57
M  V30 45 1 58 59
M  V30 46 1 59 60
M  V30 47 1 61 62
M  V30 48 1 62 63
M  V30 49 1 64 65
M  V30 50 1 65 66
M  V30 51 1 67 68
M  V30 52 1 68 69
M  V30 53 1 70 71
M  V30 54 1 71 72
M  V30 55 1 73 74
M  V30 56 1 74 75
M  V30 57 1 76 77
M  V30 58 1 77 78
M  V30 59 1 79 80
M  V30 60 1 80 81
M  V30 61 1 82 83
M  V30 62 1 83 84
M  V30 63 1 85 86
M  V30 64 1 86 87
M  V30 65 1 88 89
M  V30 66 1 89 90
M  V30 67 1 91 92
M  V30 68 1 92 93
M  V30 69 1 94 95
M  V30 70 1 95 96
M  V30 71 1 97 98
M  V30 72 1 98 99
M  V30 73 1 2 49
M  V30 74 1 3 94
M  V30 75 1 4 88
M  V30 76 1 5 91
M  V30 77 1 7 46
M  V30 78 1 8 79
M  V30 79 1 9 85
M  V30 80 1 10 58
M  V30 81 1 12 61
M  V30 82 1 13 70
M  V30 83 1 14 82
M  V30 84 1 15 76
M  V30 85 1 17 84
M  V30 86 1 18 55
M  V30 87 1 19 73
M  V30 88 1 20 64
M  V30 89 1 22 48
M  V30 90 1 23 72
M  V30 91 1 24 75
M  V30 92 1 25 52
M  V30 93 1 27 57
M  V30 94 1 28 97
M  V30 95 1 29 90
M  V30 96 1 30 66
M  V30 97 1 32 51
M  V30 98 1 33 99
M  V30 99 1 34 78
M  V30 100 1 35 63
M  V30 101 1 37 54
M  V30 102 1 38 67
M  V30 103 1 39 87
M  V30 104 1 40 93
M  V30 105 1 42 81
M  V30 106 1 43 96
M  V30 107 1 44 69
M  V30 108 1 45 60
M  V30 END BOND
M  V30 END CTAB
M  END

$$$$
