
     RDKit          3D

  0  0  0  0  0  0  0  0  0  0999 V3000
M  V30 BEGIN CTAB
M  V30 COUNTS 99 108 0 0 0
M  V30 BEGIN ATOM
M  V30 1 Pd 1.8187 -3.1478 -0.2155 0
M  V30 2 Pb 1.8403 -3.2496 -1.2132 0
M  V30 3 Pb 2.7952 -3.3819 -0.2117 0
M  V30 4 Pb 0.8346 -2.9565 -0.2402 0
M  V30 5 Pb 1.7850 -3.0811 0.7858 0
M  V30 6 Pd -2.4053 -1.9774 3.3080 0
M  V30 7 Pb -1.9520 -1.0786 3.2218 0
M  V30 8 Pb -2.5947 -1.7795 4.2669 0
M  V30 9 Pb -2.2378 -2.1590 2.3356 0
M  V30 10 Pb -3.0793 -2.7131 3.3679 0
M  V30 11 Pd -4.7551 2.6352 2.3636 0
M  V30 12 Pb -4.5468 2.7280 1.3900 0
M  V30 13 Pb -4.9371 2.5778 3.3423 0
M  V30 14 Pb -5.7332 2.5566 2.1817 0
M  V30 15 Pb -3.7747 2.4634 2.5443 0
M  V30 16 Pd -1.3163 -1.9706 -4.4726 0
M  V30 17 Pb -2.1881 -1.4785 -4.4268 0
M  V30 18 Pb -0.8966 -1.2598 -5.0333 0
M  V30 19 Pb -1.7300 -2.6676 -3.8950 0
M  V30 20 Pb -0.4369 -2.4414 -4.4200 0
M  V30 21 Pd -0.3065 4.0306 0.6439 0
M  V30 22 Pb 0.4548 4.2154 1.2638 0
M  V30 23 Pb 0.1832 4.4866 -0.1003 0
M  V30 24 Pb -1.0888 3.8364 0.0521 0
M  V30 25 Pb -0.7501 3.5142 1.3778 0
M  V30 26 Pd -6.4273 -1.7029 0.6115 0
M  V30 27 Pb -5.8820 -2.4347 0.2136 0
M  V30 28 Pb -6.3500 -1.2294 -0.2680 0
M  V30 29 Pb -6.9593 -0.9356 0.9837 0
M  V30 30 Pb -6.3942 -2.2252 1.4656 0
M  V30 31 Pd 6.7961 -0.9153 -1.4503 0
M  V30 32 Pb 7.1285 0.0114 -1.6260 0
M  V30 33 Pb 6.8419 -0.7547 -0.4684 0
M  V30 34 Pb 6.7142 -1.0452 -2.4393 0
M  V30 35 Pb 6.4232 -1.8234 -1.2474 0
M  V30 36 Pd 1.9409 0.6999 3.7482 0
M  V30 37 Pb 2.9195 0.5162 3.7187 0
M  V30 38 Pb 0.9625 0.9082 3.7361 0
M  V30 39 Pb 1.7723 -0.2870 3.7284 0
M  V30 40 Pb 2.1289 1.6797 3.7016 0
M  V30 41 Pd 4.7372 2.4311 -4.6017 0
M  V30 42 Pb 3.9325 2.2112 -5.1494 0
M  V30 43 Pb 5.1740 1.5751 -4.8824 0
M  V30 44 Pb 5.5312 2.6185 -4.0253 0
M  V30 45 Pb 4.2585 3.2375 -4.2534 0
M  V30 46 Ag -2.8490 -1.1432 -4.2973 0
M  V30 47 Fe -4.6010 -0.9470 -2.7016 0
M  V30 48 Ag -6.2032 -0.9354 -0.9445 0
M  V30 49 Ag -0.5413 -0.7343 -5.4293 0
M  V30 50 Fe 1.3587 0.6807 -5.5525 0
M  V30 51 Ag 3.3113 2.0277 -5.5232 0
M  V30 52 Ag -2.0855 -3.1335 -3.4355 0
M  V30 53 Fe -3.7519 -3.1972 -1.7540 0
M  V30 54 Ag -5.4439 -2.9385 -0.1171 0
M  V30 55 Ag 6.8091 -0.6354 0.2669 0
M  V30 56 Fe 5.3313 -0.1288 2.0483 0
M  V30 57 Ag 3.6484 0.3820 3.6360 0
M  V30 58 Ag -2.8384 -1.4888 4.9039 0
M  V30 59 Fe -4.0346 0.5240 5.1242 0
M  V30 60 Ag -4.9649 2.4060 4.0635 0
M  V30 61 Ag 0.5925 4.7855 -0.6543 0
M  V30 62 Fe 2.2220 4.3799 -2.3351 0
M  V30 63 Ag 3.8516 3.7971 -3.9626 0
M  V30 64 Ba 7.3409 0.7155 -1.7724 0
M  V30 65 Ga 6.7723 1.7426 -2.6637 0
M  V30 66 Ba 6.1297 2.6993 -3.5826 0
M  V30 67 Ba 3.5153 -3.6016 -0.2595 0
M  V30 68 Ga 4.8193 -3.0226 -0.6526 0
M  V30 69 Ba 6.1460 -2.4906 -1.0359 0
M  V30 70 Ba -4.3368 2.8216 0.6762 0
M  V30 71 Ga -3.0416 3.2426 0.1104 0
M  V30 72 Ba -1.7049 3.6710 -0.3423 0
M  V30 73 Ba 1.7173 -3.0571 1.5366 0
M  V30 74 Ga 1.7036 -2.0330 2.6035 0
M  V30 75 Ba 1.6860 -1.0327 3.6928 0
M  V30 76 Ba -3.6941 -3.1396 3.4361 0
M  V30 77 Ga -5.0060 -2.9717 2.7733 0
M  V30 78 Ba -6.2597 -2.6966 2.0374 0
M  V30 79 Ba -1.6990 -0.3624 3.1598 0
M  V30 80 Ga -2.3665 0.9506 2.9149 0
M  V30 81 Ba -3.0517 2.2542 2.6690 0
M  V30 82 Ba 1.8837 -3.3536 -1.9578 0
M  V30 83 Ga 1.0550 -3.0659 -3.1456 0
M  V30 84 Ba 0.2268 -2.7778 -4.3337 0
M  V30 85 Ba 6.6456 -1.0783 -3.1864 0
M  V30 86 Ga 6.0797 -0.1128 -4.1500 0
M  V30 87 Ba 5.4925 0.9123 -5.0360 0
M  V30 88 Ba -1.0451 3.0926 1.9249 0
M  V30 89 Ga -0.4416 2.0958 2.8312 0
M  V30 90 Ba 0.2422 1.1157 3.6979 0
M  V30 91 Ba 0.0920 -2.8366 -0.2689 0
M  V30 92 Ga -0.9994 -2.5536 0.6884 0
M  V30 93 Ba -2.1302 -2.2701 1.5984 0
M  V30 94 Ba 1.0058 4.3236 1.7596 0
M  V30 95 Ga 1.6611 3.4031 2.7049 0
M  V30 96 Ba 2.2595 2.4120 3.6160 0
M  V30 97 Ba -6.4462 2.3555 2.0698 0
M  V30 98 Ga -6.9486 1.0333 1.6374 0
M  V30 99 Ba -7.3450 -0.3233 1.2006 0
M  V30 END ATOM
M  V30 BEGIN BOND
M  V30 1 1 1 2
M  V30 2 1 1 3
M  V30 3 1 1 4
M  V30 4 1 1 5
M  V30 5 1 6 7
M  V30 6 1 6 8
M  V30 7 1 6 9
M  V30 8 1 6 10
M  V30 9 1 11 12
M  V30 10 1 11 13
M  V30 11 1 11 14
M  V30 12 1 11 15
M  V30 13 1 16 17
M  V30 14 1 16 18
M  V30 15 1 16 19
M  V30 16 1 16 20
M  V30 17 1 21 22
M  V30 18 1 21 23
M  V30 19 1 21 24
M  V30 20 1 21 25
M  V30 21 1 26 27
M  V30 22 1 26 28
M  V30 23 1 26 29
M  V30 24 1 26 30
M  V30 25 1 31 32
M  V30 26 1 31 33
M  V30 27 1 31 34
M  V30 28 1 31 35
M  V30 29 1 36 37
M  V30 30 1 36 38
M  V30 31 1 36 39
M  V30 32 1 36 40
M  V30 33 1 41 42
M  V30 34 1 41 43
M  V30 35 1 41 44
M  V30 36 1 41 45
M  V30 37 1 46 47
M  V30 38 1 47 48
M  V30 39 1 49 50
M  V30 40 1 50 51
M  V30 41 1 52 53
M  V30 42 1 53 54
M  V30 43 1 55 56
M  V30 44 1 56 57
M  V30 45 1 58 59
M  V30 46 1 59 60
M  V30 47 1 61 62
M  V30 48 1 62 63
M  V30 49 1 64 65
M  V30 50 1 65 66
M  V30 51 1 67 68
M  V30 52 1 68 69
M  V30 53 1 70 71
M  V30 54 1 71 72
M  V30 55 1 73 74
M  V30 56 1 74 75
M  V30 57 1 76 77
M  V30 58 1 77 78
M  V30 59 1 79 80
M  V30 60 1 80 81
M  V30 61 1 82 83
M  V30 62 1 83 84
M  V30 63 1 85 86
M  V30 64 1 86 87
M  V30 65 1 88 89
M  V30 66 1 89 90
M  V30 67 1 91 92
M  V30 68 1 92 93
M  V30 69 1 94 95
M  V30 70 1 95 96
M  V30 71 1 97 98
M  V30 72 1 98 99
M  V30 73 1 2 82
M  V30 74 1 3 67
M  V30 75 1 4 91
M  V30 76 1 5 73
M  V30 77 1 7 79
M  V30 78 1 8 58
M  V30 79 1 9 93
M  V30 80 1 10 76
M  V30 81 1 12 70
M  V30 82 1 13 60
M  V30 83 1 14 97
M  V30 84 1 15 81
M  V30 85 1 17 46
M  V30 86 1 18 49
M  V30 87 1 19 52
M  V30 88 1 20 84
M  V30 89 1 22 94
M  V30 90 1 23 61
M  V30 91 1 24 72
M  V30 92 1 25 88
M  V30 93 1 27 54
M  V30 94 1 28 48
M  V30 95 1 29 99
M  V30 96 1 30 78
M  V30 97 1 32 64
M  V30 98 1 33 55
M  V30 99 1 34 85
M  V30 100 1 35 69
M  V30 101 1 37 57
M  V30 102 1 38 90
M  V30 103 1 39 75
M  V30 104 1 40 96
M  V30 105 1 42 51
M  V30 106 1 43 87
M  V30 107 1 44 66
M  V30 108 1 45 63
M  V30 END BOND
M  V30 END CTAB
M  END

$$$$
