
     RDKit          3D

  0  0  0  0  0  0  0  0  0  0999 V3000
M  V30 BEGIN CTAB
M  V30 COUNTS 99 108 0 0 0
M  V30 BEGIN ATOM
M  V30 1 Pd -4.3268 3.7991 0.2690 0
M  V30 2 Pb -3.6929 4.5049 -0.0502 0
M  V30 3 Pb -3.9968 3.8994 1.2090 0
M  V30 4 Pb -4.7012 3.7091 -0.6556 0
M  V30 5 Pb -4.9118 3.0559 0.5881 0
M  V30 6 Pd 2.7233 -0.9934 5.7674 0
M  V30 7 Pb 2.7133 -0.8252 4.7817 0
M  V30 8 Pb 2.5234 -1.1251 6.7349 0
M  V30 9 Pb 2.5032 -1.9510 5.6192 0
M  V30 10 Pb 2.7964 -0.0128 5.9357 0
M  V30 11 Pd 5.5254 -0.8229 -4.1330 0
M  V30 12 Pb 5.5326 0.0530 -3.6519 0
M  V30 13 Pb 5.7476 -1.3118 -3.2920 0
M  V30 14 Pb 5.4371 -1.7083 -4.5915 0
M  V30 15 Pb 5.2116 -0.3152 -4.9368 0
M  V30 16 Pd 1.3826 -3.8380 -4.1576 0
M  V30 17 Pb 2.2945 -4.0621 -4.5052 0
M  V30 18 Pb 0.4796 -3.5578 -3.8271 0
M  V30 19 Pb 1.3945 -4.6000 -3.5077 0
M  V30 20 Pb 1.3473 -3.0566 -4.7771 0
M  V30 21 Pd 1.2997 -3.5761 0.9275 0
M  V30 22 Pb 1.4158 -2.6829 1.3663 0
M  V30 23 Pb 2.2925 -3.5884 0.8281 0
M  V30 24 Pb 1.2488 -4.4241 0.4001 0
M  V30 25 Pb 0.2945 -3.5427 0.9331 0
M  V30 26 Pd -2.8791 2.1026 -4.8691 0
M  V30 27 Pb -2.9670 1.2271 -4.3916 0
M  V30 28 Pb -2.7366 2.9665 -5.3511 0
M  V30 29 Pb -3.6782 2.4776 -4.3984 0
M  V30 30 Pb -2.0806 1.7186 -5.3288 0
M  V30 31 Pd 1.2836 4.9736 -4.6107 0
M  V30 32 Pb 0.7941 5.4499 -3.8799 0
M  V30 33 Pb 0.4970 5.1335 -5.2064 0
M  V30 34 Pb 1.7504 4.4250 -5.3069 0
M  V30 35 Pb 2.0549 4.7644 -4.0109 0
M  V30 36 Pd -3.5691 -2.7236 3.8124 0
M  V30 37 Pb -3.2908 -2.9998 2.8924 0
M  V30 38 Pb -3.7844 -2.3835 4.7314 0
M  V30 39 Pb -2.8429 -3.3072 4.1630 0
M  V30 40 Pb -4.2720 -2.1257 3.4296 0
M  V30 41 Pd -1.3102 1.0354 7.0361 0
M  V30 42 Pb -0.8110 0.4161 7.6465 0
M  V30 43 Pb -1.7724 1.6926 6.4374 0
M  V30 44 Pb -2.1258 0.4510 7.0831 0
M  V30 45 Pb -0.4740 1.5810 6.9603 0
M  V30 46 Ag -3.1909 5.0038 -0.3013 0
M  V30 47 Fe -1.3974 5.4516 -1.7937 0
M  V30 48 Ag 0.3821 5.7632 -3.3366 0
M  V30 49 Ag -0.1873 -3.2824 -3.6162 0
M  V30 50 Fe -1.6511 -1.4163 -3.7740 0
M  V30 51 Ag -2.9537 0.5504 -4.0652 0
M  V30 52 Ag 4.9238 0.1332 -5.4666 0
M  V30 53 Fe 3.5409 2.0444 -5.7595 0
M  V30 54 Ag 2.1316 3.9587 -5.7571 0
M  V30 55 Ag 5.4581 0.7266 -3.3321 0
M  V30 56 Fe 4.1335 2.6965 -3.3615 0
M  V30 57 Ag 2.6463 4.5294 -3.6154 0
M  V30 58 Ag 1.2663 -2.4463 -5.2012 0
M  V30 59 Fe -0.0431 -0.4936 -5.5163 0
M  V30 60 Ag -1.4869 1.3846 -5.6375 0
M  V30 61 Ag 2.1860 -2.6165 5.5307 0
M  V30 62 Fe 0.0285 -3.4100 4.9722 0
M  V30 63 Ag -2.2415 -3.6956 4.3688 0
M  V30 64 Ag -5.2967 2.4728 0.8557 0
M  V30 65 Fe -5.1261 0.3942 1.9879 0
M  V30 66 Ag -4.7719 -1.6578 3.1263 0
M  V30 67 Ag -3.7968 3.9685 1.9301 0
M  V30 68 Fe -2.9275 3.0598 3.9472 0
M  V30 69 Ag -2.0715 2.2288 6.0031 0
M  V30 70 Ag 5.8237 -1.6918 -2.6529 0
M  V30 71 Fe 4.5624 -2.6738 -0.9009 0
M  V30 72 Ag 3.0241 -3.5415 0.6819 0
M  V30 73 Ba 2.5975 -0.6587 4.0588 0
M  V30 74 Ga 2.1025 -1.3630 2.8576 0
M  V30 75 Ba 1.6106 -2.0008 1.6186 0
M  V30 76 Ba -0.4558 -3.5610 0.8416 0
M  V30 77 Ga -1.7309 -3.3649 1.5651 0
M  V30 78 Ba -3.0524 -3.1896 2.2068 0
M  V30 79 Ba 1.3726 -5.1485 -2.9943 0
M  V30 80 Ga 1.3067 -5.1304 -1.5195 0
M  V30 81 Ba 1.2433 -5.0253 -0.0484 0
M  V30 82 Ba 2.7346 0.7165 6.0883 0
M  V30 83 Ga 1.5006 1.4128 6.4937 0
M  V30 84 Ba 0.1813 1.9404 6.8857 0
M  V30 85 Ba 2.2334 -1.1905 7.4202 0
M  V30 86 Ga 0.9337 -0.6357 7.8420 0
M  V30 87 Ba -0.3801 -0.0125 8.0905 0
M  V30 88 Ba 5.3358 -2.3938 -4.8814 0
M  V30 89 Ga 4.1780 -3.3105 -4.8562 0
M  V30 90 Ba 2.9804 -4.1728 -4.7916 0
M  V30 91 Ba -5.0142 3.6526 -1.3366 0
M  V30 92 Ga -4.6233 3.2005 -2.6866 0
M  V30 93 Ba -4.2817 2.7608 -4.0538 0
M  V30 94 Ba -3.9382 -2.0948 5.4102 0
M  V30 95 Ga -3.3273 -1.0502 6.2634 0
M  V30 96 Ba -2.7240 -0.0070 7.1237 0
M  V30 97 Ba -2.5764 3.6028 -5.7129 0
M  V30 98 Ga -1.3691 4.4486 -5.6974 0
M  V30 99 Ba -0.1228 5.2317 -5.6163 0
M  V30 END ATOM
M  V30 BEGIN BOND
M  V30 1 1 1 2
M  V30 2 1 1 3
M  V30 3 1 1 4
M  V30 4 1 1 5
M  V30 5 1 6 7
M  V30 6 1 6 8
M  V30 7 1 6 9
M  V30 8 1 6 10
M  V30 9 1 11 12
M  V30 10 1 11 13
M  V30 11 1 11 14
M  V30 12 1 11 15
M  V30 13 1 16 17
M  V30 14 1 16 18
M  V30 15 1 16 19
M  V30 16 1 16 20
M  V30 17 1 21 22
M  V30 18 1 21 23
M  V30 19 1 21 24
M  V30 20 1 21 25
M  V30 21 1 26 27
M  V30 22 1 26 28
M  V30 23 1 26 29
M  V30 24 1 26 30
M  V30 25 1 31 32
M  V30 26 1 31 33
M  V30 27 1 31 34
M  V30 28 1 31 35
M  V30 29 1 36 37
M  V30 30 1 36 38
M  V30 31 1 36 39
M  V30 32 1 36 40
M  V30 33 1 41 42
M  V30 34 1 41 43
M  V30 35 1 41 44
M  V30 36 1 41 45
M  V30 37 1 46 47
M  V30 38 1 47 48
M  V30 39 1 49 50
M  V30 40 1 50 51
M  V30 41 1 52 53
M  V30 42 1 53 54
M  V30 43 1 55 56
M  V30 44 1 56 57
M  V30 45 1 58 59
M  V30 46 1 59 60
M  V30 47 1 61 62
M  V30 48 1 62 63
M  V30 49 1 64 65
M  V30 50 1 65 66
M  V30 51 1 67 68
M  V30 52 1 68 69
M  V30 53 1 70 71
M  V30 54 1 71 72
M  V30 55 1 73 74
M  V30 56 1 74 75
M  V30 57 1 76 77
M  V30 58 1 77 78
M  V30 59 1 79 80
M  V30 60 1 80 81
M  V30 61 1 82 83
M  V30 62 1 83 84
M  V30 63 1 85 86
M  V30 64 1 86 87
M  V30 65 1 88 89
M  V30 66 1 89 90
M  V30 67 1 91 92
M  V30 68 1 92 93
M  V30 69 1 94 95
M  V30 70 1 95 96
M  V30 71 1 97 98
M  V30 72 1 98 99
M  V30 73 1 2 46
M  V30 74 1 3 67
M  V30 75 1 4 91
M  V30 76 1 5 64
M  V30 77 1 7 73
M  V30 78 1 8 85
M  V30 79 1 9 61
M  V30 80 1 10 82
M  V30 81 1 12 55
M  V30 82 1 13 70
M  V30 83 1 14 88
M  V30 84 1 15 52
M  V30 85 1 17 90
M  V30 86 1 18 49
M  V30 87 1 19 79
M  V30 88 1 20 58
M  V30 89 1 22 75
M  V30 90 1 23 72
M  V30 91 1 24 81
M  V30 92 1 25 76
M  V30 93 1 27 51
M  V30 94 1 28 97
M  V30 95 1 29 93
M  V30 96 1 30 60
M  V30 97 1 32 48
M  V30 98 1 33 99
M  V30 99 1 34 54
M  V30 100 1 35 57
M  V30 101 1 37 78
M  V30 102 1 38 94
M  V30 103 1 39 63
M  V30 104 1 40 66
M  V30 105 1 42 87
M  V30 106 1 43 69
M  V30 107 1 44 96
M  V30 108 1 45 84
M  V30 END BOND
M  V30 END CTAB
M  END

$$$$
