
     RDKit          3D

  0  0  0  0  0  0  0  0  0  0999 V3000
M  V30 BEGIN CTAB
M  V30 COUNTS 99 108 0 0 0
M  V30 BEGIN ATOM
M  V30 1 Pd 0.8158 0.4382 -3.9061 0
M  V30 2 Pb 1.6865 0.0491 -4.1927 0
M  V30 3 Pb -0.0134 0.8831 -3.5574 0
M  V30 4 Pb 0.9886 1.1986 -4.5345 0
M  V30 5 Pb 0.7469 -0.3154 -3.2512 0
M  V30 6 Pd -7.5015 -1.5002 1.0639 0
M  V30 7 Pb -7.1395 -1.4852 1.9992 0
M  V30 8 Pb -7.8294 -1.5487 0.1239 0
M  V30 9 Pb -7.5496 -2.4952 1.1125 0
M  V30 10 Pb -7.3560 -0.5160 0.9298 0
M  V30 11 Pd 5.2885 -0.7580 3.5538 0
M  V30 12 Pb 6.0793 -0.2437 3.8735 0
M  V30 13 Pb 4.4645 -1.1787 3.1684 0
M  V30 14 Pb 4.7288 -0.4177 4.3057 0
M  V30 15 Pb 5.8365 -1.0469 2.7524 0
M  V30 16 Pd -0.2462 3.4039 3.1124 0
M  V30 17 Pb 0.1066 3.0107 3.9575 0
M  V30 18 Pb -0.5279 3.7408 2.2168 0
M  V30 19 Pb -1.1348 2.9705 3.2496 0
M  V30 20 Pb 0.6576 3.7897 2.9215 0
M  V30 21 Pd -2.5511 -1.8358 3.4251 0
M  V30 22 Pb -3.5027 -1.8674 3.7397 0
M  V30 23 Pb -1.6054 -1.8173 3.0888 0
M  V30 24 Pb -2.6727 -0.8415 3.3852 0
M  V30 25 Pb -2.4470 -2.8309 3.4930 0
M  V30 26 Pd 3.6745 4.4110 -2.8797 0
M  V30 27 Pb 2.7138 4.4995 -2.6193 0
M  V30 28 Pb 4.6471 4.3298 -3.1168 0
M  V30 29 Pb 3.3703 4.1873 -3.8058 0
M  V30 30 Pb 3.8984 4.5939 -1.9228 0
M  V30 31 Pd 7.6663 1.1294 -1.4088 0
M  V30 32 Pb 7.1705 0.6529 -2.1310 0
M  V30 33 Pb 7.6747 1.9488 -1.9852 0
M  V30 34 Pb 7.5743 0.3197 -0.8072 0
M  V30 35 Pb 8.1601 1.5851 -0.6730 0
M  V30 36 Pd -2.2202 -5.6181 -0.1844 0
M  V30 37 Pb -2.0763 -5.7138 0.7999 0
M  V30 38 Pb -2.4026 -5.4024 -1.1430 0
M  V30 39 Pb -3.1457 -5.9647 -0.0530 0
M  V30 40 Pb -1.3512 -5.1428 -0.2949 0
M  V30 41 Pd -4.9521 0.2564 -2.8026 0
M  V30 42 Pb -5.8163 -0.2368 -2.8710 0
M  V30 43 Pb -4.0969 0.7759 -2.7415 0
M  V30 44 Pb -4.5154 -0.4662 -3.3358 0
M  V30 45 Pb -5.3914 0.8709 -2.1416 0
M  V30 46 Ag 2.3755 -0.1950 -4.3392 0
M  V30 47 Fe 4.6187 -0.0247 -3.5932 0
M  V30 48 Ag 6.7726 0.3088 -2.6615 0
M  V30 49 Ag -0.6308 3.9677 1.5123 0
M  V30 50 Fe 0.5682 4.3111 -0.5060 0
M  V30 51 Ag 2.0086 4.5634 -2.3746 0
M  V30 52 Ag 6.6729 0.1995 3.9220 0
M  V30 53 Fe 7.8946 1.2560 2.2012 0
M  V30 54 Ag 8.4490 1.8087 -0.0257 0
M  V30 55 Ag 1.3283 4.0529 2.7095 0
M  V30 56 Fe 2.7493 4.4319 0.8439 0
M  V30 57 Ag 3.9577 4.7022 -1.1833 0
M  V30 58 Ag 4.2493 -0.1251 4.7976 0
M  V30 59 Fe 2.3310 1.2639 4.8799 0
M  V30 60 Ag 0.4609 2.6743 4.5212 0
M  V30 61 Ag -7.4797 -3.2381 1.0820 0
M  V30 62 Fe -5.8204 -4.8652 0.6173 0
M  V30 63 Ag -3.8644 -6.0983 0.0977 0
M  V30 64 Ag 0.8010 -0.8913 -2.7717 0
M  V30 65 Fe 0.0280 -2.8014 -1.5916 0
M  V30 66 Ag -0.7555 -4.7073 -0.4117 0
M  V30 67 Ag -2.5273 -5.1248 -1.8277 0
M  V30 68 Fe -3.3378 -3.1753 -2.9121 0
M  V30 69 Ag -4.2175 -1.0892 -3.6245 0
M  V30 70 Ag 3.8290 -1.4338 2.8564 0
M  V30 71 Fe 1.4595 -1.6431 2.8798 0
M  V30 72 Ag -0.9049 -1.8967 2.8211 0
M  V30 73 Ba -6.8712 -1.5289 2.7017 0
M  V30 74 Ga -5.5392 -1.6824 3.3270 0
M  V30 75 Ba -4.2177 -1.8360 3.9737 0
M  V30 76 Ba -2.3256 -3.5725 3.5406 0
M  V30 77 Ga -2.1688 -4.6674 2.5617 0
M  V30 78 Ba -2.0208 -5.7309 1.5474 0
M  V30 79 Ba -1.8009 2.6370 3.3200 0
M  V30 80 Ga -2.2869 1.2437 3.3560 0
M  V30 81 Ba -2.8651 -0.1136 3.3993 0
M  V30 82 Ba 6.2609 -1.2728 2.1601 0
M  V30 83 Ga 6.8580 -0.7314 0.9058 0
M  V30 84 Ba 7.5008 -0.2999 -0.3686 0
M  V30 85 Ba -7.2166 0.2025 0.7464 0
M  V30 86 Ga -6.4853 0.7806 -0.4059 0
M  V30 87 Ba -5.7350 1.2569 -1.5921 0
M  V30 88 Ba -8.0238 -1.5814 -0.5960 0
M  V30 89 Ga -7.2978 -1.1078 -1.7828 0
M  V30 90 Ba -6.4743 -0.5904 -2.8847 0
M  V30 91 Ba 1.2055 1.7552 -4.9912 0
M  V30 92 Ga 2.1227 2.8931 -4.7761 0
M  V30 93 Ba 3.0497 3.9983 -4.4578 0
M  V30 94 Ba -0.5890 1.2746 -3.2693 0
M  V30 95 Ga -2.0401 1.1737 -3.0043 0
M  V30 96 Ba -3.4830 1.2069 -2.6833 0
M  V30 97 Ba 5.3843 4.2874 -3.2715 0
M  V30 98 Ga 6.5098 3.4217 -2.8550 0
M  V30 99 Ba 7.6295 2.5508 -2.4338 0
M  V30 END ATOM
M  V30 BEGIN BOND
M  V30 1 1 1 2
M  V30 2 1 1 3
M  V30 3 1 1 4
M  V30 4 1 1 5
M  V30 5 1 6 7
M  V30 6 1 6 8
M  V30 7 1 6 9
M  V30 8 1 6 10
M  V30 9 1 11 12
M  V30 10 1 11 13
M  V30 11 1 11 14
M  V30 12 1 11 15
M  V30 13 1 16 17
M  V30 14 1 16 18
M  V30 15 1 16 19
M  V30 16 1 16 20
M  V30 17 1 21 22
M  V30 18 1 21 23
M  V30 19 1 21 24
M  V30 20 1 21 25
M  V30 21 1 26 27
M  V30 22 1 26 28
M  V30 23 1 26 29
M  V30 24 1 26 30
M  V30 25 1 31 32
M  V30 26 1 31 33
M  V30 27 1 31 34
M  V30 28 1 31 35
M  V30 29 1 36 37
M  V30 30 1 36 38
M  V30 31 1 36 39
M  V30 32 1 36 40
M  V30 33 1 41 42
M  V30 34 1 41 43
M  V30 35 1 41 44
M  V30 36 1 41 45
M  V30 37 1 46 47
M  V30 38 1 47 48
M  V30 39 1 49 50
M  V30 40 1 50 51
M  V30 41 1 52 53
M  V30 42 1 53 54
M  V30 43 1 55 56
M  V30 44 1 56 57
M  V30 45 1 58 59
M  V30 46 1 59 60
M  V30 47 1 61 62
M  V30 48 1 62 63
M  V30 49 1 64 65
M  V30 50 1 65 66
M  V30 51 1 67 68
M  V30 52 1 68 69
M  V30 53 1 70 71
M  V30 54 1 71 72
M  V30 55 1 73 74
M  V30 56 1 74 75
M  V30 57 1 76 77
M  V30 58 1 77 78
M  V30 59 1 79 80
M  V30 60 1 80 81
M  V30 61 1 82 83
M  V30 62 1 83 84
M  V30 63 1 85 86
M  V30 64 1 86 87
M  V30 65 1 88 89
M  V30 66 1 89 90
M  V30 67 1 91 92
M  V30 68 1 92 93
M  V30 69 1 94 95
M  V30 70 1 95 96
M  V30 71 1 97 98
M  V30 72 1 98 99
M  V30 73 1 2 46
M  V30 74 1 3 94
M  V30 75 1 4 91
M  V30 76 1 5 64
M  V30 77 1 7 73
M  V30 78 1 8 88
M  V30 79 1 9 61
M  V30 80 1 10 85
M  V30 81 1 12 52
M  V30 82 1 13 70
M  V30 83 1 14 58
M  V30 84 1 15 82
M  V30 85 1 17 60
M  V30 86 1 18 49
M  V30 87 1 19 79
M  V30 88 1 20 55
M  V30 89 1 22 75
M  V30 90 1 23 72
M  V30 91 1 24 81
M  V30 92 1 25 76
M  V30 93 1 27 51
M  V30 94 1 28 97
M  V30 95 1 29 93
M  V30 96 1 30 57
M  V30 97 1 32 48
M  V30 98 1 33 99
M  V30 99 1 34 84
M  V30 100 1 35 54
M  V30 101 1 37 78
M  V30 102 1 38 67
M  V30 103 1 39 63
M  V30 104 1 40 66
M  V30 105 1 42 90
M  V30 106 1 43 96
M  V30 107 1 44 69
M  V30 108 1 45 87
M  V30 END BOND
M  V30 END CTAB
M  END

$$$$
