
     RDKit          3D

  0  0  0  0  0  0  0  0  0  0999 V3000
M  V30 BEGIN CTAB
M  V30 COUNTS 99 108 0 0 0
M  V30 BEGIN ATOM
M  V30 1 Pd 5.0093 4.0192 1.0257 0
M  V30 2 Pb 4.9717 3.0944 1.4105 0
M  V30 3 Pb 5.0576 4.9511 0.6606 0
M  V30 4 Pb 5.6906 4.2870 1.7091 0
M  V30 5 Pb 4.2945 3.7984 0.3602 0
M  V30 6 Pd 4.1989 7.7638 3.7252 0
M  V30 7 Pb 3.2573 8.0389 3.5314 0
M  V30 8 Pb 5.0926 7.3405 3.8629 0
M  V30 9 Pb 4.4815 8.0110 2.8020 0
M  V30 10 Pb 3.8618 7.3614 4.5721 0
M  V30 11 Pd 2.3494 -3.0512 -3.3775 0
M  V30 12 Pb 2.5909 -3.4913 -2.5171 0
M  V30 13 Pb 1.9406 -2.5569 -4.1386 0
M  V30 14 Pb 2.1873 -3.9335 -3.8226 0
M  V30 15 Pb 2.4991 -2.1587 -2.9480 0
M  V30 16 Pd -1.8262 -6.6965 -4.1061 0
M  V30 17 Pb -2.7683 -6.8474 -3.8292 0
M  V30 18 Pb -1.5810 -7.3247 -3.3708 0
M  V30 19 Pb -2.1428 -5.9483 -4.6965 0
M  V30 20 Pb -0.8693 -6.5652 -4.3725 0
M  V30 21 Pd 1.4026 -0.0721 1.4041 0
M  V30 22 Pb 0.4572 -0.1696 1.0991 0
M  V30 23 Pb 1.0295 -0.1267 2.3296 0
M  V30 24 Pb 1.7567 -0.0009 0.4696 0
M  V30 25 Pb 2.3354 0.0625 1.7390 0
M  V30 26 Pd -1.3187 3.5096 3.8446 0
M  V30 27 Pb -1.3214 4.4755 3.5842 0
M  V30 28 Pb -1.9858 3.2901 3.1290 0
M  V30 29 Pb -0.6642 3.7613 4.5561 0
M  V30 30 Pb -1.2138 2.5489 4.1001 0
M  V30 31 Pd -2.3373 -4.0385 1.7222 0
M  V30 32 Pb -2.3082 -3.0510 1.5673 0
M  V30 33 Pb -3.3361 -3.9812 1.6727 0
M  V30 34 Pb -1.3401 -4.0978 1.6977 0
M  V30 35 Pb -2.3303 -5.0368 1.6996 0
M  V30 36 Pd -2.2141 1.7836 -1.7177 0
M  V30 37 Pb -3.1206 1.4004 -1.8994 0
M  V30 38 Pb -1.8924 1.4381 -2.5991 0
M  V30 39 Pb -1.2937 2.1598 -1.5893 0
M  V30 40 Pb -2.5582 2.1178 -0.8353 0
M  V30 41 Pd -5.1155 -3.1794 -2.4760 0
M  V30 42 Pb -4.6921 -3.2212 -3.3893 0
M  V30 43 Pb -5.2133 -4.1687 -2.5057 0
M  V30 44 Pb -5.4592 -3.1992 -1.5356 0
M  V30 45 Pb -5.1213 -2.1763 -2.4699 0
M  V30 46 Ag 3.5233 6.9690 5.1086 0
M  V30 47 Fe 1.7026 5.4605 5.2864 0
M  V30 48 Ag -0.1647 4.0175 5.0514 0
M  V30 49 Ag 3.7539 3.6802 -0.1480 0
M  V30 50 Fe 1.5588 3.0208 -0.7793 0
M  V30 51 Ag -0.5838 2.4097 -1.6085 0
M  V30 52 Ag 2.5239 8.1136 3.3935 0
M  V30 53 Fe 0.5397 6.8087 3.3546 0
M  V30 54 Ag -1.2065 5.2003 3.4278 0
M  V30 55 Ag 2.6299 -3.7448 -1.8165 0
M  V30 56 Fe 1.1563 -4.0366 0.0188 0
M  V30 57 Ag -0.6024 -4.1880 1.6034 0
M  V30 58 Ag -1.5237 -7.6692 -2.7100 0
M  V30 59 Fe -1.8286 -6.9961 -0.4564 0
M  V30 60 Ag -2.2224 -5.7569 1.5272 0
M  V30 61 Ag 1.5312 -2.1024 -4.5635 0
M  V30 62 Fe -0.0804 -0.4204 -4.1232 0
M  V30 63 Ag -1.6114 1.1578 -3.2348 0
M  V30 64 Ba 2.0739 -4.5893 -4.1713 0
M  V30 65 Ga 0.9476 -5.5267 -4.3584 0
M  V30 66 Ba -0.1483 -6.4935 -4.5733 0
M  V30 67 Ba -3.8054 1.1349 -2.0546 0
M  V30 68 Ga -4.4578 -0.1765 -2.2496 0
M  V30 69 Ba -5.2118 -1.4286 -2.4651 0
M  V30 70 Ba 5.1050 5.6663 0.4335 0
M  V30 71 Ga 4.9115 6.9204 1.1839 0
M  V30 72 Ba 4.6782 8.0641 2.0835 0
M  V30 73 Ba -4.0774 -3.8855 1.5914 0
M  V30 74 Ga -4.9085 -3.5761 0.4092 0
M  V30 75 Ba -5.6724 -3.2687 -0.8180 0
M  V30 76 Ba -2.4353 -5.3507 -5.0545 0
M  V30 77 Ga -3.3904 -4.3125 -4.5888 0
M  V30 78 Ba -4.3476 -3.3075 -4.0591 0
M  V30 79 Ba 6.1670 4.5529 2.2256 0
M  V30 80 Ga 6.0278 5.7317 3.1012 0
M  V30 81 Ba 5.7210 6.9350 3.8968 0
M  V30 82 Ba 0.6734 -0.1554 2.9888 0
M  V30 83 Ga -0.1973 0.8172 3.6751 0
M  V30 84 Ba -1.0535 1.8437 4.2983 0
M  V30 85 Ba -2.5154 3.1601 2.6107 0
M  V30 86 Ga -2.6334 2.7414 1.1968 0
M  V30 87 Ba -2.9016 2.3376 -0.2006 0
M  V30 88 Ba -0.2761 -0.2243 0.9590 0
M  V30 89 Ga -1.2852 -1.2813 1.1575 0
M  V30 90 Ba -2.3019 -2.3313 1.3543 0
M  V30 91 Ba 2.6023 -1.4694 -2.6665 0
M  V30 92 Ga 2.3109 -0.7290 -1.4218 0
M  V30 93 Ba 2.0570 0.0835 -0.2145 0
M  V30 94 Ba 4.9615 2.4073 1.7169 0
M  V30 95 Ga 3.9955 1.2972 1.8405 0
M  V30 96 Ba 3.0391 0.1795 1.9711 0
M  V30 97 Ba -3.4639 -6.9415 -3.5846 0
M  V30 98 Ga -4.4218 -5.9629 -3.0631 0
M  V30 99 Ba -5.3032 -4.9059 -2.5598 0
M  V30 END ATOM
M  V30 BEGIN BOND
M  V30 1 1 1 2
M  V30 2 1 1 3
M  V30 3 1 1 4
M  V30 4 1 1 5
M  V30 5 1 6 7
M  V30 6 1 6 8
M  V30 7 1 6 9
M  V30 8 1 6 10
M  V30 9 1 11 12
M  V30 10 1 11 13
M  V30 11 1 11 14
M  V30 12 1 11 15
M  V30 13 1 16 17
M  V30 14 1 16 18
M  V30 15 1 16 19
M  V30 16 1 16 20
M  V30 17 1 21 22
M  V30 18 1 21 23
M  V30 19 1 21 24
M  V30 20 1 21 25
M  V30 21 1 26 27
M  V30 22 1 26 28
M  V30 23 1 26 29
M  V30 24 1 26 30
M  V30 25 1 31 32
M  V30 26 1 31 33
M  V30 27 1 31 34
M  V30 28 1 31 35
M  V30 29 1 36 37
M  V30 30 1 36 38
M  V30 31 1 36 39
M  V30 32 1 36 40
M  V30 33 1 41 42
M  V30 34 1 41 43
M  V30 35 1 41 44
M  V30 36 1 41 45
M  V30 37 1 46 47
M  V30 38 1 47 48
M  V30 39 1 49 50
M  V30 40 1 50 51
M  V30 41 1 52 53
M  V30 42 1 53 54
M  V30 43 1 55 56
M  V30 44 1 56 57
M  V30 45 1 58 59
M  V30 46 1 59 60
M  V30 47 1 61 62
M  V30 48 1 62 63
M  V30 49 1 64 65
M  V30 50 1 65 66
M  V30 51 1 67 68
M  V30 52 1 68 69
M  V30 53 1 70 71
M  V30 54 1 71 72
M  V30 55 1 73 74
M  V30 56 1 74 75
M  V30 57 1 76 77
M  V30 58 1 77 78
M  V30 59 1 79 80
M  V30 60 1 80 81
M  V30 61 1 82 83
M  V30 62 1 83 84
M  V30 63 1 85 86
M  V30 64 1 86 87
M  V30 65 1 88 89
M  V30 66 1 89 90
M  V30 67 1 91 92
M  V30 68 1 92 93
M  V30 69 1 94 95
M  V30 70 1 95 96
M  V30 71 1 97 98
M  V30 72 1 98 99
M  V30 73 1 2 94
M  V30 74 1 3 70
M  V30 75 1 4 79
M  V30 76 1 5 49
M  V30 77 1 7 52
M  V30 78 1 8 81
M  V30 79 1 9 72
M  V30 80 1 10 46
M  V30 81 1 12 55
M  V30 82 1 13 61
M  V30 83 1 14 64
M  V30 84 1 15 91
M  V30 85 1 17 97
M  V30 86 1 18 58
M  V30 87 1 19 76
M  V30 88 1 20 66
M  V30 89 1 22 88
M  V30 90 1 23 82
M  V30 91 1 24 93
M  V30 92 1 25 96
M  V30 93 1 27 54
M  V30 94 1 28 85
M  V30 95 1 29 48
M  V30 96 1 30 84
M  V30 97 1 32 90
M  V30 98 1 33 73
M  V30 99 1 34 57
M  V30 100 1 35 60
M  V30 101 1 37 67
M  V30 102 1 38 63
M  V30 103 1 39 51
M  V30 104 1 40 87
M  V30 105 1 42 78
M  V30 106 1 43 99
M  V30 107 1 44 75
M  V30 108 1 45 69
M  V30 END BOND
M  V30 END CTAB
M  END

$$$$
