
     RDKit          3D

  0  0  0  0  0  0  0  0  0  0999 V3000
M  V30 BEGIN CTAB
M  V30 COUNTS 99 108 0 0 0
M  V30 BEGIN ATOM
M  V30 1 Pd -1.4718 -4.3026 -0.2205 0
M  V30 2 Pb -0.5003 -4.3835 -0.4507 0
M  V30 3 Pb -1.3297 -4.9203 0.5596 0
M  V30 4 Pb -1.6421 -3.7815 -1.0574 0
M  V30 5 Pb -2.4481 -4.1979 -0.0242 0
M  V30 6 Pd -3.6092 1.8813 -4.6146 0
M  V30 7 Pb -3.6921 2.8724 -4.7034 0
M  V30 8 Pb -3.8377 1.9712 -3.6482 0
M  V30 9 Pb -3.4282 0.9052 -4.4994 0
M  V30 10 Pb -3.1994 1.8452 -5.5213 0
M  V30 11 Pd -0.4300 4.4025 -2.3389 0
M  V30 12 Pb 0.2041 3.8493 -1.7986 0
M  V30 13 Pb -1.2015 3.9891 -1.8494 0
M  V30 14 Pb 0.3238 4.8019 -2.8676 0
M  V30 15 Pb -1.0914 4.9003 -2.8984 0
M  V30 16 Pd 5.1083 -0.9075 -2.4933 0
M  V30 17 Pb 4.8897 -1.0500 -3.4597 0
M  V30 18 Pb 5.3290 -0.7341 -1.5345 0
M  V30 19 Pb 5.5435 -0.0429 -2.7399 0
M  V30 20 Pb 4.6391 -1.7552 -2.2406 0
M  V30 21 Pd -0.6119 2.5887 2.6787 0
M  V30 22 Pb -1.2088 2.8331 3.4333 0
M  V30 23 Pb 0.1788 2.7949 3.2564 0
M  V30 24 Pb 0.0026 2.4057 1.9109 0
M  V30 25 Pb -1.4281 2.3043 2.1334 0
M  V30 26 Pd 3.3640 2.5699 -5.7911 0
M  V30 27 Pb 4.1928 2.6329 -5.2373 0
M  V30 28 Pb 3.6072 1.6257 -6.0139 0
M  V30 29 Pb 3.0918 3.4858 -5.4900 0
M  V30 30 Pb 2.5351 2.4848 -6.3427 0
M  V30 31 Pd -0.2157 -4.6462 5.2604 0
M  V30 32 Pb 0.7678 -4.6476 5.0891 0
M  V30 33 Pb -1.1998 -4.6450 5.4267 0
M  V30 34 Pb -0.0785 -3.9221 5.9384 0
M  V30 35 Pb -0.3663 -5.2983 4.5176 0
M  V30 36 Pd -5.2717 -0.9551 2.4945 0
M  V30 37 Pb -5.5314 -1.6820 3.1218 0
M  V30 38 Pb -4.8159 -0.2294 1.9449 0
M  V30 39 Pb -5.1433 -1.6616 1.7947 0
M  V30 40 Pb -5.4314 -0.2939 3.2175 0
M  V30 41 Pd 3.0266 -0.6032 4.9776 0
M  V30 42 Pb 3.7186 -0.4322 4.2781 0
M  V30 43 Pb 2.3383 -0.8069 5.6767 0
M  V30 44 Pb 3.2168 -1.5814 4.9082 0
M  V30 45 Pb 2.8335 0.3793 5.0218 0
M  V30 46 Ag 5.4970 -0.5780 -0.8213 0
M  V30 47 Fe 4.8730 -0.4517 1.4654 0
M  V30 48 Ag 4.2387 -0.3296 3.7495 0
M  V30 49 Ag -2.7599 1.8602 -6.1233 0
M  V30 50 Fe -0.4517 2.1154 -6.6033 0
M  V30 51 Ag 1.9000 2.3960 -6.7302 0
M  V30 52 Ag -1.9441 -4.6270 5.4951 0
M  V30 53 Fe -3.9008 -3.5609 4.6900 0
M  V30 54 Ag -5.5455 -2.2347 3.6193 0
M  V30 55 Ag 0.2271 -4.4401 -0.6315 0
M  V30 56 Fe 2.2551 -3.4204 -1.3362 0
M  V30 57 Ag 4.2722 -2.3799 -2.0414 0
M  V30 58 Ag -1.8246 -3.4511 -1.7064 0
M  V30 59 Fe -2.5313 -1.6107 -3.0312 0
M  V30 60 Ag -3.2339 0.1860 -4.4170 0
M  V30 61 Ag -1.7386 2.9372 3.9376 0
M  V30 62 Fe -3.7960 1.8457 4.2613 0
M  V30 63 Ag -5.4232 0.2314 3.7369 0
M  V30 64 Ba 1.5066 -4.6184 4.9745 0
M  V30 65 Ga 2.4495 -3.4891 4.9053 0
M  V30 66 Ba 3.3401 -2.3175 4.8468 0
M  V30 67 Ba 4.7357 -1.1123 -4.1921 0
M  V30 68 Ga 4.2601 -0.1334 -5.1891 0
M  V30 69 Ba 3.7826 0.9045 -6.1236 0
M  V30 70 Ba -1.2122 -5.4452 1.0897 0
M  V30 71 Ga -0.8577 -5.5696 2.5198 0
M  V30 72 Ba -0.5068 -5.7605 3.9437 0
M  V30 73 Ba 0.6476 3.3984 -1.3952 0
M  V30 74 Ga 0.5757 2.8484 -0.0281 0
M  V30 75 Ba 0.4832 2.3103 1.3426 0
M  V30 76 Ba -3.1892 -4.0924 0.0434 0
M  V30 77 Ga -4.1111 -3.1456 0.7056 0
M  V30 78 Ba -5.1098 -2.2487 1.3245 0
M  V30 79 Ba 5.8356 0.6175 -2.9382 0
M  V30 80 Ga 5.3602 1.6557 -3.8687 0
M  V30 81 Ba 4.8124 2.6408 -4.8169 0
M  V30 82 Ba -3.8802 2.1035 -2.9137 0
M  V30 83 Ga -2.8902 2.8756 -2.1393 0
M  V30 84 Ba -1.8057 3.6710 -1.5324 0
M  V30 85 Ba 0.7603 2.9151 3.7160 0
M  V30 86 Ga 1.7368 2.0243 4.3758 0
M  V30 87 Ba 2.7061 1.1208 5.0290 0
M  V30 88 Ba -3.6694 3.6198 -4.7266 0
M  V30 89 Ga -2.6905 4.4957 -4.0617 0
M  V30 90 Ba -1.6288 5.2008 -3.3246 0
M  V30 91 Ba 0.0369 -3.3438 6.4045 0
M  V30 92 Ga 0.9247 -2.1648 6.3269 0
M  V30 93 Ba 1.8329 -1.0061 6.1970 0
M  V30 94 Ba -2.0402 2.1049 1.7080 0
M  V30 95 Ga -3.2262 1.1865 1.6903 0
M  V30 96 Ba -4.4437 0.3200 1.5567 0
M  V30 97 Ba 0.8674 5.1120 -3.2873 0
M  V30 98 Ga 1.8768 4.6311 -4.2555 0
M  V30 99 Ba 2.8897 4.1598 -5.2246 0
M  V30 END ATOM
M  V30 BEGIN BOND
M  V30 1 1 1 2
M  V30 2 1 1 3
M  V30 3 1 1 4
M  V30 4 1 1 5
M  V30 5 1 6 7
M  V30 6 1 6 8
M  V30 7 1 6 9
M  V30 8 1 6 10
M  V30 9 1 11 12
M  V30 10 1 11 13
M  V30 11 1 11 14
M  V30 12 1 11 15
M  V30 13 1 16 17
M  V30 14 1 16 18
M  V30 15 1 16 19
M  V30 16 1 16 20
M  V30 17 1 21 22
M  V30 18 1 21 23
M  V30 19 1 21 24
M  V30 20 1 21 25
M  V30 21 1 26 27
M  V30 22 1 26 28
M  V30 23 1 26 29
M  V30 24 1 26 30
M  V30 25 1 31 32
M  V30 26 1 31 33
M  V30 27 1 31 34
M  V30 28 1 31 35
M  V30 29 1 36 37
M  V30 30 1 36 38
M  V30 31 1 36 39
M  V30 32 1 36 40
M  V30 33 1 41 42
M  V30 34 1 41 43
M  V30 35 1 41 44
M  V30 36 1 41 45
M  V30 37 1 46 47
M  V30 38 1 47 48
M  V30 39 1 49 50
M  V30 40 1 50 51
M  V30 41 1 52 53
M  V30 42 1 53 54
M  V30 43 1 55 56
M  V30 44 1 56 57
M  V30 45 1 58 59
M  V30 46 1 59 60
M  V30 47 1 61 62
M  V30 48 1 62 63
M  V30 49 1 64 65
M  V30 50 1 65 66
M  V30 51 1 67 68
M  V30 52 1 68 69
M  V30 53 1 70 71
M  V30 54 1 71 72
M  V30 55 1 73 74
M  V30 56 1 74 75
M  V30 57 1 76 77
M  V30 58 1 77 78
M  V30 59 1 79 80
M  V30 60 1 80 81
M  V30 61 1 82 83
M  V30 62 1 83 84
M  V30 63 1 85 86
M  V30 64 1 86 87
M  V30 65 1 88 89
M  V30 66 1 89 90
M  V30 67 1 91 92
M  V30 68 1 92 93
M  V30 69 1 94 95
M  V30 70 1 95 96
M  V30 71 1 97 98
M  V30 72 1 98 99
M  V30 73 1 2 55
M  V30 74 1 3 70
M  V30 75 1 4 58
M  V30 76 1 5 76
M  V30 77 1 7 88
M  V30 78 1 8 82
M  V30 79 1 9 60
M  V30 80 1 10 49
M  V30 81 1 12 73
M  V30 82 1 13 84
M  V30 83 1 14 97
M  V30 84 1 15 90
M  V30 85 1 17 67
M  V30 86 1 18 46
M  V30 87 1 19 79
M  V30 88 1 20 57
M  V30 89 1 22 61
M  V30 90 1 23 85
M  V30 91 1 24 75
M  V30 92 1 25 94
M  V30 93 1 27 81
M  V30 94 1 28 69
M  V30 95 1 29 99
M  V30 96 1 30 51
M  V30 97 1 32 64
M  V30 98 1 33 52
M  V30 99 1 34 91
M  V30 100 1 35 72
M  V30 101 1 37 54
M  V30 102 1 38 96
M  V30 103 1 39 78
M  V30 104 1 40 63
M  V30 105 1 42 48
M  V30 106 1 43 93
M  V30 107 1 44 66
M  V30 108 1 45 87
M  V30 END BOND
M  V30 END CTAB
M  END

$$$$
