
     RDKit          3D

  0  0  0  0  0  0  0  0  0  0999 V3000
M  V30 BEGIN CTAB
M  V30 COUNTS 99 108 0 0 0
M  V30 BEGIN ATOM
M  V30 1 Pd -2.0294 -4.3658 -0.4799 0
M  V30 2 Pb -2.6701 -4.5885 0.2564 0
M  V30 3 Pb -1.3072 -4.7722 0.0818 0
M  V30 4 Pb -2.7528 -4.0018 -1.0739 0
M  V30 5 Pb -1.3801 -4.2436 -1.2318 0
M  V30 6 Pd 2.2856 -0.7672 -6.1161 0
M  V30 7 Pb 1.9201 -1.5452 -5.6048 0
M  V30 8 Pb 2.6479 0.0186 -6.6101 0
M  V30 9 Pb 1.3926 -0.3168 -6.1647 0
M  V30 10 Pb 3.2189 -1.0507 -5.9024 0
M  V30 11 Pd 2.5135 2.0091 2.7904 0
M  V30 12 Pb 3.3904 2.4834 2.8416 0
M  V30 13 Pb 2.1497 2.7001 2.1625 0
M  V30 14 Pb 1.6990 1.4438 2.6699 0
M  V30 15 Pb 2.8304 1.3653 3.4842 0
M  V30 16 Pd 1.9198 5.5825 -4.0152 0
M  V30 17 Pb 1.5654 5.6220 -3.0823 0
M  V30 18 Pb 1.0944 5.1173 -4.3425 0
M  V30 19 Pb 2.8231 5.8418 -3.6798 0
M  V30 20 Pb 2.3125 5.4187 -4.9144 0
M  V30 21 Pd -3.0276 2.1545 2.0422 0
M  V30 22 Pb -2.3071 1.4672 2.0622 0
M  V30 23 Pb -3.0157 2.1535 1.0247 0
M  V30 24 Pb -3.1349 2.0354 3.0295 0
M  V30 25 Pb -3.7527 2.8376 2.0296 0
M  V30 26 Pd 6.4628 1.3375 -0.4939 0
M  V30 27 Pb 6.3171 0.4522 -0.0496 0
M  V30 28 Pb 6.3919 1.8319 0.3750 0
M  V30 29 Pb 6.5287 2.2289 -0.9440 0
M  V30 30 Pb 6.5099 0.8434 -1.3657 0
M  V30 31 Pd 1.7657 -3.2123 3.6138 0
M  V30 32 Pb 2.1723 -2.4908 4.1700 0
M  V30 33 Pb 0.9877 -3.2639 4.2448 0
M  V30 34 Pb 2.5750 -3.1497 3.0280 0
M  V30 35 Pb 1.3973 -3.9571 3.0559 0
M  V30 36 Pd -3.9199 -2.3752 4.3020 0
M  V30 37 Pb -3.9486 -3.2659 3.8529 0
M  V30 38 Pb -3.8839 -1.4541 4.7000 0
M  V30 39 Pb -4.7948 -2.2069 3.8464 0
M  V30 40 Pb -3.0643 -2.6126 4.7671 0
M  V30 41 Pd -6.0079 -0.1723 -1.8313 0
M  V30 42 Pb -6.5364 0.6459 -1.6236 0
M  V30 43 Pb -5.5109 -1.0105 -2.0727 0
M  V30 44 Pb -5.1965 0.4111 -1.9733 0
M  V30 45 Pb -6.7017 -0.7141 -1.3709 0
M  V30 46 Ag 0.8152 0.1635 -6.1248 0
M  V30 47 Fe 0.4598 2.4074 -5.4203 0
M  V30 48 Ag 0.5777 4.6431 -4.6164 0
M  V30 49 Ag 3.9178 -1.1394 -5.6471 0
M  V30 50 Fe 5.3108 -0.4165 -3.8621 0
M  V30 51 Ag 6.5151 0.4322 -1.9967 0
M  V30 52 Ag 2.8706 0.6591 -6.9194 0
M  V30 53 Fe 2.8590 2.9831 -6.4726 0
M  V30 54 Ag 2.5935 5.1439 -5.5454 0
M  V30 55 Ag 1.8496 3.2402 1.7336 0
M  V30 56 Fe 1.5852 4.4239 -0.3094 0
M  V30 57 Ag 1.3439 5.5858 -2.3677 0
M  V30 58 Ag -0.9007 -4.2156 -1.8091 0
M  V30 59 Fe 0.3621 -3.1185 -3.4959 0
M  V30 60 Ag 1.6708 -2.1386 -5.2195 0
M  V30 61 Ag 6.1666 -0.2271 0.2343 0
M  V30 62 Fe 4.7005 -1.6623 1.4339 0
M  V30 63 Ag 3.2125 -3.0704 2.6385 0
M  V30 64 Ag -5.4346 -2.1839 3.4536 0
M  V30 65 Fe -6.4617 -1.7010 1.3699 0
M  V30 66 Ag -7.0792 -1.0520 -0.8262 0
M  V30 67 Ag 3.5262 5.8828 -3.4274 0
M  V30 68 Fe 5.1322 4.5158 -2.3366 0
M  V30 69 Ag 6.5058 2.9178 -1.2419 0
M  V30 70 Ag -4.3589 3.2375 1.8858 0
M  V30 71 Fe -6.0141 2.7258 0.2962 0
M  V30 72 Ag -6.8272 1.2791 -1.3704 0
M  V30 73 Ba -3.2604 -3.7729 -1.5826 0
M  V30 74 Ga -4.2106 -2.6751 -1.8685 0
M  V30 75 Ba -5.1981 -1.6591 -2.2957 0
M  V30 76 Ba 4.0828 2.7679 2.8469 0
M  V30 77 Ga 5.2228 2.5256 1.9416 0
M  V30 78 Ba 6.3254 2.2421 1.0022 0
M  V30 79 Ba -3.2508 1.8675 3.7520 0
M  V30 80 Ga -3.5406 0.5701 4.3997 0
M  V30 81 Ba -3.8272 -0.7578 4.9841 0
M  V30 82 Ba -3.0171 2.1303 0.2570 0
M  V30 83 Ga -3.8073 1.4948 -0.8431 0
M  V30 84 Ba -4.5863 0.8678 -1.9560 0
M  V30 85 Ba -0.7849 -5.1179 0.4965 0
M  V30 86 Ga 0.1734 -4.7857 1.5692 0
M  V30 87 Ba 1.1563 -4.5351 2.6417 0
M  V30 88 Ba -3.1022 -4.8321 0.8212 0
M  V30 89 Ga -3.5524 -4.3565 2.1429 0
M  V30 90 Ba -4.0179 -3.9035 3.4675 0
M  V30 91 Ba 0.4435 -3.2943 4.7643 0
M  V30 92 Ga -1.0070 -3.0425 4.8996 0
M  V30 93 Ba -2.4478 -2.8203 5.1451 0
M  V30 94 Ba 3.0288 0.8968 4.0329 0
M  V30 95 Ga 2.7808 -0.5279 4.3082 0
M  V30 96 Ba 2.5188 -1.9546 4.5591 0
M  V30 97 Ba 1.1372 0.9611 2.5570 0
M  V30 98 Ga -0.3169 0.9809 2.3305 0
M  V30 99 Ba -1.7705 0.9505 2.1016 0
M  V30 END ATOM
M  V30 BEGIN BOND
M  V30 1 1 1 2
M  V30 2 1 1 3
M  V30 3 1 1 4
M  V30 4 1 1 5
M  V30 5 1 6 7
M  V30 6 1 6 8
M  V30 7 1 6 9
M  V30 8 1 6 10
M  V30 9 1 11 12
M  V30 10 1 11 13
M  V30 11 1 11 14
M  V30 12 1 11 15
M  V30 13 1 16 17
M  V30 14 1 16 18
M  V30 15 1 16 19
M  V30 16 1 16 20
M  V30 17 1 21 22
M  V30 18 1 21 23
M  V30 19 1 21 24
M  V30 20 1 21 25
M  V30 21 1 26 27
M  V30 22 1 26 28
M  V30 23 1 26 29
M  V30 24 1 26 30
M  V30 25 1 31 32
M  V30 26 1 31 33
M  V30 27 1 31 34
M  V30 28 1 31 35
M  V30 29 1 36 37
M  V30 30 1 36 38
M  V30 31 1 36 39
M  V30 32 1 36 40
M  V30 33 1 41 42
M  V30 34 1 41 43
M  V30 35 1 41 44
M  V30 36 1 41 45
M  V30 37 1 46 47
M  V30 38 1 47 48
M  V30 39 1 49 50
M  V30 40 1 50 51
M  V30 41 1 52 53
M  V30 42 1 53 54
M  V30 43 1 55 56
M  V30 44 1 56 57
M  V30 45 1 58 59
M  V30 46 1 59 60
M  V30 47 1 61 62
M  V30 48 1 62 63
M  V30 49 1 64 65
M  V30 50 1 65 66
M  V30 51 1 67 68
M  V30 52 1 68 69
M  V30 53 1 70 71
M  V30 54 1 71 72
M  V30 55 1 73 74
M  V30 56 1 74 75
M  V30 57 1 76 77
M  V30 58 1 77 78
M  V30 59 1 79 80
M  V30 60 1 80 81
M  V30 61 1 82 83
M  V30 62 1 83 84
M  V30 63 1 85 86
M  V30 64 1 86 87
M  V30 65 1 88 89
M  V30 66 1 89 90
M  V30 67 1 91 92
M  V30 68 1 92 93
M  V30 69 1 94 95
M  V30 70 1 95 96
M  V30 71 1 97 98
M  V30 72 1 98 99
M  V30 73 1 2 88
M  V30 74 1 3 85
M  V30 75 1 4 73
M  V30 76 1 5 58
M  V30 77 1 7 60
M  V30 78 1 8 52
M  V30 79 1 9 46
M  V30 80 1 10 49
M  V30 81 1 12 76
M  V30 82 1 13 55
M  V30 83 1 14 97
M  V30 84 1 15 94
M  V30 85 1 17 57
M  V30 86 1 18 48
M  V30 87 1 19 67
M  V30 88 1 20 54
M  V30 89 1 22 99
M  V30 90 1 23 82
M  V30 91 1 24 79
M  V30 92 1 25 70
M  V30 93 1 27 61
M  V30 94 1 28 78
M  V30 95 1 29 69
M  V30 96 1 30 51
M  V30 97 1 32 96
M  V30 98 1 33 91
M  V30 99 1 34 63
M  V30 100 1 35 87
M  V30 101 1 37 90
M  V30 102 1 38 81
M  V30 103 1 39 64
M  V30 104 1 40 93
M  V30 105 1 42 72
M  V30 106 1 43 75
M  V30 107 1 44 84
M  V30 108 1 45 66
M  V30 END BOND
M  V30 END CTAB
M  END

$$$$
