
     RDKit          3D

  0  0  0  0  0  0  0  0  0  0999 V3000
M  V30 BEGIN CTAB
M  V30 COUNTS 99 108 0 0 0
M  V30 BEGIN ATOM
M  V30 1 Pd -0.4217 -1.4729 4.8383 0
M  V30 2 Pb 0.4499 -1.9148 4.9751 0
M  V30 3 Pb 0.1366 -0.6592 4.6837 0
M  V30 4 Pb -0.8206 -2.3782 4.6674 0
M  V30 5 Pb -1.3120 -1.0076 4.9346 0
M  V30 6 Pd 0.8399 1.7027 -5.6920 0
M  V30 7 Pb 1.8100 1.7665 -5.4534 0
M  V30 8 Pb 1.1153 1.0148 -6.3572 0
M  V30 9 Pb 0.5713 2.4176 -5.0358 0
M  V30 10 Pb -0.1166 1.4996 -5.9217 0
M  V30 11 Pd -0.9098 -2.1028 -0.8231 0
M  V30 12 Pb -0.7724 -1.2124 -0.3790 0
M  V30 13 Pb -1.8128 -2.1371 -0.4145 0
M  V30 14 Pb -1.1976 -2.9087 -1.3335 0
M  V30 15 Pb -0.0084 -2.0979 -1.2618 0
M  V30 16 Pd 1.8222 2.0055 2.4482 0
M  V30 17 Pb 0.9843 1.7824 1.9514 0
M  V30 18 Pb 2.6774 2.2367 2.9085 0
M  V30 19 Pb 1.4716 2.9040 2.7059 0
M  V30 20 Pb 2.2659 1.1909 2.0399 0
M  V30 21 Pd -5.0798 1.9138 3.4088 0
M  V30 22 Pb -5.2901 1.0503 2.9713 0
M  V30 23 Pb -4.8306 2.7854 3.8189 0
M  V30 24 Pb -4.6702 1.3995 4.1645 0
M  V30 25 Pb -5.3858 2.4083 2.5916 0
M  V30 26 Pd 1.8133 -3.5392 1.3111 0
M  V30 27 Pb 1.5633 -3.7847 0.3718 0
M  V30 28 Pb 2.2310 -3.4515 2.2007 0
M  V30 29 Pb 1.0694 -4.0694 1.7423 0
M  V30 30 Pb 2.4223 -2.8098 0.9984 0
M  V30 31 Pd 4.8596 -0.8417 -0.5316 0
M  V30 32 Pb 4.0707 -1.2341 -1.0114 0
M  V30 33 Pb 5.2492 -0.6480 -1.4278 0
M  V30 34 Pb 5.6490 -0.4486 -0.0631 0
M  V30 35 Pb 4.3479 -0.7350 0.3377 0
M  V30 36 Pd -0.8384 -2.9194 -5.8141 0
M  V30 37 Pb -0.1447 -2.5834 -6.4429 0
M  V30 38 Pb -0.2093 -3.5535 -5.3741 0
M  V30 39 Pb -1.4301 -2.1619 -6.1023 0
M  V30 40 Pb -1.4959 -3.3056 -5.1754 0
M  V30 41 Pd -2.2583 5.1094 0.9040 0
M  V30 42 Pb -1.8223 5.0138 0.0013 0
M  V30 43 Pb -3.1564 4.8433 0.5522 0
M  V30 44 Pb -1.3887 5.3143 1.3459 0
M  V30 45 Pb -2.6761 5.2376 1.8021 0
M  V30 46 Ag 1.5084 -4.0362 -0.3366 0
M  V30 47 Fe 0.8697 -4.0201 -2.6255 0
M  V30 48 Ag 0.1967 -3.9683 -4.9039 0
M  V30 49 Ag 0.6949 -0.2239 4.4215 0
M  V30 50 Fe 2.3403 -0.3255 2.6915 0
M  V30 51 Ag 3.9698 -0.4666 0.9476 0
M  V30 52 Ag 0.3746 2.9830 -4.5729 0
M  V30 53 Fe -0.5742 3.9065 -2.5924 0
M  V30 54 Ag -1.4809 4.9890 -0.6737 0
M  V30 55 Ag -2.4926 -2.1521 -0.1185 0
M  V30 56 Fe -4.0539 -1.0033 1.2322 0
M  V30 57 Ag -5.3504 0.4037 2.6176 0
M  V30 58 Ag 2.5401 1.6702 -5.3023 0
M  V30 59 Fe 4.1109 0.6993 -3.8083 0
M  V30 60 Ag 5.3841 -0.3470 -2.0984 0
M  V30 61 Ag 3.3870 2.3242 3.1109 0
M  V30 62 Fe 5.2751 1.3543 2.0954 0
M  V30 63 Ag 6.0817 -0.0760 0.4108 0
M  V30 64 Ba 0.6457 -2.1374 -1.6312 0
M  V30 65 Ga 2.0760 -1.8030 -1.4640 0
M  V30 66 Ba 3.5286 -1.5295 -1.4428 0
M  V30 67 Ba -0.8065 1.2580 -6.1115 0
M  V30 68 Ga -1.3566 -0.1157 -6.2077 0
M  V30 69 Ba -1.8039 -1.5282 -6.2692 0
M  V30 70 Ba 1.3175 0.4805 -6.8362 0
M  V30 71 Ga 0.8851 -0.9178 -6.9284 0
M  V30 72 Ba 0.3616 -2.2874 -6.9014 0
M  V30 73 Ba -1.9650 -0.7020 5.1747 0
M  V30 74 Ga -3.1302 0.1589 4.8599 0
M  V30 75 Ba -4.3512 0.9869 4.7064 0
M  V30 76 Ba -1.5469 -3.4345 -1.7342 0
M  V30 77 Ga -1.7410 -3.5995 -3.1828 0
M  V30 78 Ba -1.8638 -3.6803 -4.6460 0
M  V30 79 Ba 1.2879 3.6206 2.8242 0
M  V30 80 Ga 0.2562 4.5340 2.3036 0
M  V30 81 Ba -0.7861 5.4293 1.7728 0
M  V30 82 Ba -0.9788 -3.0693 4.3984 0
M  V30 83 Ga -0.2870 -3.7733 3.2782 0
M  V30 84 Ba 0.4903 -4.3585 2.1457 0
M  V30 85 Ba -4.6165 3.4601 4.0500 0
M  V30 86 Ga -3.7995 4.4379 3.3178 0
M  V30 87 Ba -2.9765 5.3239 2.4826 0
M  V30 88 Ba 2.6593 0.6606 1.6561 0
M  V30 89 Ga 2.6995 -0.7765 1.2747 0
M  V30 90 Ba 2.8323 -2.1961 0.8511 0
M  V30 91 Ba -0.8228 -0.5196 -0.0827 0
M  V30 92 Ga -0.1609 0.5045 0.7522 0
M  V30 93 Ba 0.3649 1.6254 1.5600 0
M  V30 94 Ba 1.1137 -2.2182 5.0768 0
M  V30 95 Ga 1.9308 -2.8455 4.0572 0
M  V30 96 Ba 2.5370 -3.4148 2.8701 0
M  V30 97 Ba -5.5496 2.7783 1.9564 0
M  V30 98 Ga -4.7443 3.7029 1.1299 0
M  V30 99 Ba -3.8519 4.6151 0.3832 0
M  V30 END ATOM
M  V30 BEGIN BOND
M  V30 1 1 1 2
M  V30 2 1 1 3
M  V30 3 1 1 4
M  V30 4 1 1 5
M  V30 5 1 6 7
M  V30 6 1 6 8
M  V30 7 1 6 9
M  V30 8 1 6 10
M  V30 9 1 11 12
M  V30 10 1 11 13
M  V30 11 1 11 14
M  V30 12 1 11 15
M  V30 13 1 16 17
M  V30 14 1 16 18
M  V30 15 1 16 19
M  V30 16 1 16 20
M  V30 17 1 21 22
M  V30 18 1 21 23
M  V30 19 1 21 24
M  V30 20 1 21 25
M  V30 21 1 26 27
M  V30 22 1 26 28
M  V30 23 1 26 29
M  V30 24 1 26 30
M  V30 25 1 31 32
M  V30 26 1 31 33
M  V30 27 1 31 34
M  V30 28 1 31 35
M  V30 29 1 36 37
M  V30 30 1 36 38
M  V30 31 1 36 39
M  V30 32 1 36 40
M  V30 33 1 41 42
M  V30 34 1 41 43
M  V30 35 1 41 44
M  V30 36 1 41 45
M  V30 37 1 46 47
M  V30 38 1 47 48
M  V30 39 1 49 50
M  V30 40 1 50 51
M  V30 41 1 52 53
M  V30 42 1 53 54
M  V30 43 1 55 56
M  V30 44 1 56 57
M  V30 45 1 58 59
M  V30 46 1 59 60
M  V30 47 1 61 62
M  V30 48 1 62 63
M  V30 49 1 64 65
M  V30 50 1 65 66
M  V30 51 1 67 68
M  V30 52 1 68 69
M  V30 53 1 70 71
M  V30 54 1 71 72
M  V30 55 1 73 74
M  V30 56 1 74 75
M  V30 57 1 76 77
M  V30 58 1 77 78
M  V30 59 1 79 80
M  V30 60 1 80 81
M  V30 61 1 82 83
M  V30 62 1 83 84
M  V30 63 1 85 86
M  V30 64 1 86 87
M  V30 65 1 88 89
M  V30 66 1 89 90
M  V30 67 1 91 92
M  V30 68 1 92 93
M  V30 69 1 94 95
M  V30 70 1 95 96
M  V30 71 1 97 98
M  V30 72 1 98 99
M  V30 73 1 2 94
M  V30 74 1 3 49
M  V30 75 1 4 82
M  V30 76 1 5 73
M  V30 77 1 7 58
M  V30 78 1 8 70
M  V30 79 1 9 52
M  V30 80 1 10 67
M  V30 81 1 12 91
M  V30 82 1 13 55
M  V30 83 1 14 76
M  V30 84 1 15 64
M  V30 85 1 17 93
M  V30 86 1 18 61
M  V30 87 1 19 79
M  V30 88 1 20 88
M  V30 89 1 22 57
M  V30 90 1 23 85
M  V30 91 1 24 75
M  V30 92 1 25 97
M  V30 93 1 27 46
M  V30 94 1 28 96
M  V30 95 1 29 84
M  V30 96 1 30 90
M  V30 97 1 32 66
M  V30 98 1 33 60
M  V30 99 1 34 63
M  V30 100 1 35 51
M  V30 101 1 37 72
M  V30 102 1 38 48
M  V30 103 1 39 69
M  V30 104 1 40 78
M  V30 105 1 42 54
M  V30 106 1 43 99
M  V30 107 1 44 81
M  V30 108 1 45 87
M  V30 END BOND
M  V30 END CTAB
M  END

$$$$
