
     RDKit          3D

  0  0  0  0  0  0  0  0  0  0999 V3000
M  V30 BEGIN CTAB
M  V30 COUNTS 99 108 0 0 0
M  V30 BEGIN ATOM
M  V30 1 Pd 3.7755 2.0180 0.0780 0
M  V30 2 Pb 3.4919 2.3349 -0.8298 0
M  V30 3 Pb 3.8931 2.9614 0.3813 0
M  V30 4 Pb 3.6441 1.0793 -0.2397 0
M  V30 5 Pb 4.0094 1.7380 1.0105 0
M  V30 6 Pd 2.3966 -3.6003 1.2210 0
M  V30 7 Pb 2.1670 -4.3710 1.8105 0
M  V30 8 Pb 1.5823 -3.1304 1.5765 0
M  V30 9 Pb 2.6046 -2.8671 0.5735 0
M  V30 10 Pb 3.1618 -4.1141 0.8302 0
M  V30 11 Pd -1.9855 -5.5103 0.9050 0
M  V30 12 Pb -2.6688 -5.1210 0.2853 0
M  V30 13 Pb -1.9408 -4.6616 1.4313 0
M  V30 14 Pb -1.8351 -6.2678 0.2754 0
M  V30 15 Pb -1.2959 -5.8906 1.5188 0
M  V30 16 Pd 1.4078 -0.0168 -4.5856 0
M  V30 17 Pb 2.3467 -0.3608 -4.5358 0
M  V30 18 Pb 0.4559 0.2984 -4.6278 0
M  V30 19 Pb 1.1360 -0.8817 -5.0093 0
M  V30 20 Pb 1.7055 0.8556 -4.1902 0
M  V30 21 Pd -4.6303 -0.9946 0.9575 0
M  V30 22 Pb -3.7994 -1.3981 1.3410 0
M  V30 23 Pb -5.3814 -0.4771 0.5580 0
M  V30 24 Pb -4.6817 -1.7210 0.2743 0
M  V30 25 Pb -4.5703 -0.2913 1.6568 0
M  V30 26 Pd 3.0615 -4.8489 -3.6991 0
M  V30 27 Pb 2.4247 -4.5509 -4.4086 0
M  V30 28 Pb 3.6151 -4.0351 -3.8788 0
M  V30 29 Pb 2.4651 -5.6260 -3.4968 0
M  V30 30 Pb 3.6604 -5.0964 -2.9362 0
M  V30 31 Pd -0.6748 6.9169 2.2439 0
M  V30 32 Pb -0.6947 7.3648 1.3612 0
M  V30 33 Pb -0.5599 6.5002 3.1488 0
M  V30 34 Pb -1.6441 6.6078 2.1085 0
M  V30 35 Pb 0.3071 7.0765 2.2592 0
M  V30 36 Pd 0.8334 2.1346 4.4280 0
M  V30 37 Pb 0.8826 3.0802 4.7480 0
M  V30 38 Pb -0.1531 2.2264 4.5013 0
M  V30 39 Pb 1.8217 2.0145 4.3140 0
M  V30 40 Pb 0.6861 1.1996 4.1020 0
M  V30 41 Pd -4.2665 3.8342 -1.3673 0
M  V30 42 Pb -4.1507 3.2468 -2.1682 0
M  V30 43 Pb -4.2256 4.4044 -0.5139 0
M  V30 44 Pb -3.7258 4.5127 -1.8427 0
M  V30 45 Pb -4.9378 3.1897 -0.9894 0
M  V30 46 Ag -0.7388 7.5854 0.6605 0
M  V30 47 Fe -1.8948 6.6558 -1.1577 0
M  V30 48 Ag -3.3331 5.0706 -2.1205 0
M  V30 49 Ag 3.9368 3.6629 0.6361 0
M  V30 50 Fe 2.6622 5.4875 1.4494 0
M  V30 51 Ag 1.0481 7.0542 2.1927 0
M  V30 52 Ag -0.2684 0.5041 -4.6599 0
M  V30 53 Fe -2.1461 1.6420 -3.7474 0
M  V30 54 Ag -3.9583 2.8152 -2.7512 0
M  V30 55 Ag -4.4687 0.2200 2.1864 0
M  V30 56 Fe -2.7962 1.3338 3.4347 0
M  V30 57 Ag -0.8953 2.2570 4.4978 0
M  V30 58 Ag -3.1373 -1.5906 1.6370 0
M  V30 59 Fe -1.2531 -0.6689 2.7528 0
M  V30 60 Ag 0.4855 0.5204 3.8520 0
M  V30 61 Ag -1.5736 -6.7319 -0.2470 0
M  V30 62 Fe 0.1618 -6.6561 -1.8624 0
M  V30 63 Ag 1.9731 -6.1613 -3.3129 0
M  V30 64 Ba 3.0392 -0.6494 -4.4988 0
M  V30 65 Ga 3.5463 -2.0148 -4.2576 0
M  V30 66 Ba 3.9929 -3.4001 -4.0109 0
M  V30 67 Ba -3.1784 -4.8277 -0.1823 0
M  V30 68 Ga -3.9447 -3.5680 -0.2174 0
M  V30 69 Ba -4.6874 -2.2939 -0.2075 0
M  V30 70 Ba 4.1676 1.6065 1.7336 0
M  V30 71 Ga 3.3745 1.7249 2.9756 0
M  V30 72 Ba 2.5472 1.8551 4.1938 0
M  V30 73 Ba 0.9616 -1.5343 -5.3368 0
M  V30 74 Ga 1.4274 -2.9205 -5.1462 0
M  V30 75 Ba 1.9325 -4.2851 -4.9065 0
M  V30 76 Ba 3.7109 -4.5038 0.4972 0
M  V30 77 Ga 3.9311 -4.8952 -0.9095 0
M  V30 78 Ba 4.0837 -5.2489 -2.3350 0
M  V30 79 Ba -0.3439 6.2516 3.8272 0
M  V30 80 Ga 0.2196 5.0125 4.4058 0
M  V30 81 Ba 0.7808 3.7800 5.0004 0
M  V30 82 Ba 0.9400 -2.8426 1.8510 0
M  V30 83 Ga -0.4438 -3.3692 1.8490 0
M  V30 84 Ba -1.7747 -4.0125 1.7704 0
M  V30 85 Ba -5.8866 0.0074 0.2981 0
M  V30 86 Ga -5.6974 1.3641 -0.2544 0
M  V30 87 Ba -5.5001 2.7224 -0.8000 0
M  V30 88 Ba 1.9283 -4.9551 2.2096 0
M  V30 89 Ga 0.6094 -5.6026 2.1513 0
M  V30 90 Ba -0.7509 -6.1313 1.9713 0
M  V30 91 Ba 3.2556 2.5888 -1.4977 0
M  V30 92 Ga 2.6025 2.0261 -2.6990 0
M  V30 93 Ba 1.9495 1.5163 -3.9238 0
M  V30 94 Ba -2.3739 6.3731 1.9828 0
M  V30 95 Ga -3.2191 5.5843 1.0145 0
M  V30 96 Ba -4.1843 4.8279 0.1368 0
M  V30 97 Ba 3.5311 0.4064 -0.5503 0
M  V30 98 Ga 3.1519 -0.9712 -0.1845 0
M  V30 99 Ba 2.7841 -2.3835 0.0288 0
M  V30 END ATOM
M  V30 BEGIN BOND
M  V30 1 1 1 2
M  V30 2 1 1 3
M  V30 3 1 1 4
M  V30 4 1 1 5
M  V30 5 1 6 7
M  V30 6 1 6 8
M  V30 7 1 6 9
M  V30 8 1 6 10
M  V30 9 1 11 12
M  V30 10 1 11 13
M  V30 11 1 11 14
M  V30 12 1 11 15
M  V30 13 1 16 17
M  V30 14 1 16 18
M  V30 15 1 16 19
M  V30 16 1 16 20
M  V30 17 1 21 22
M  V30 18 1 21 23
M  V30 19 1 21 24
M  V30 20 1 21 25
M  V30 21 1 26 27
M  V30 22 1 26 28
M  V30 23 1 26 29
M  V30 24 1 26 30
M  V30 25 1 31 32
M  V30 26 1 31 33
M  V30 27 1 31 34
M  V30 28 1 31 35
M  V30 29 1 36 37
M  V30 30 1 36 38
M  V30 31 1 36 39
M  V30 32 1 36 40
M  V30 33 1 41 42
M  V30 34 1 41 43
M  V30 35 1 41 44
M  V30 36 1 41 45
M  V30 37 1 46 47
M  V30 38 1 47 48
M  V30 39 1 49 50
M  V30 40 1 50 51
M  V30 41 1 52 53
M  V30 42 1 53 54
M  V30 43 1 55 56
M  V30 44 1 56 57
M  V30 45 1 58 59
M  V30 46 1 59 60
M  V30 47 1 61 62
M  V30 48 1 62 63
M  V30 49 1 64 65
M  V30 50 1 65 66
M  V30 51 1 67 68
M  V30 52 1 68 69
M  V30 53 1 70 71
M  V30 54 1 71 72
M  V30 55 1 73 74
M  V30 56 1 74 75
M  V30 57 1 76 77
M  V30 58 1 77 78
M  V30 59 1 79 80
M  V30 60 1 80 81
M  V30 61 1 82 83
M  V30 62 1 83 84
M  V30 63 1 85 86
M  V30 64 1 86 87
M  V30 65 1 88 89
M  V30 66 1 89 90
M  V30 67 1 91 92
M  V30 68 1 92 93
M  V30 69 1 94 95
M  V30 70 1 95 96
M  V30 71 1 97 98
M  V30 72 1 98 99
M  V30 73 1 2 91
M  V30 74 1 3 49
M  V30 75 1 4 97
M  V30 76 1 5 70
M  V30 77 1 7 88
M  V30 78 1 8 82
M  V30 79 1 9 99
M  V30 80 1 10 76
M  V30 81 1 12 67
M  V30 82 1 13 84
M  V30 83 1 14 61
M  V30 84 1 15 90
M  V30 85 1 17 64
M  V30 86 1 18 52
M  V30 87 1 19 73
M  V30 88 1 20 93
M  V30 89 1 22 58
M  V30 90 1 23 85
M  V30 91 1 24 69
M  V30 92 1 25 55
M  V30 93 1 27 75
M  V30 94 1 28 66
M  V30 95 1 29 63
M  V30 96 1 30 78
M  V30 97 1 32 46
M  V30 98 1 33 79
M  V30 99 1 34 94
M  V30 100 1 35 51
M  V30 101 1 37 81
M  V30 102 1 38 57
M  V30 103 1 39 72
M  V30 104 1 40 60
M  V30 105 1 42 54
M  V30 106 1 43 96
M  V30 107 1 44 48
M  V30 108 1 45 87
M  V30 END BOND
M  V30 END CTAB
M  END

$$$$
