
     RDKit          3D

  0  0  0  0  0  0  0  0  0  0999 V3000
M  V30 BEGIN CTAB
M  V30 COUNTS 99 108 0 0 0
M  V30 BEGIN ATOM
M  V30 1 Pd 0.2702 -2.8694 -0.0865 0
M  V30 2 Pb 0.4685 -3.5669 0.6011 0
M  V30 3 Pb -0.2086 -2.3313 0.6098 0
M  V30 4 Pb 0.7706 -3.4236 -0.7509 0
M  V30 5 Pb 0.1448 -2.1472 -0.7723 0
M  V30 6 Pd -7.5299 -0.5090 0.5792 0
M  V30 7 Pb -7.0568 0.3693 0.6485 0
M  V30 8 Pb -8.0226 -1.3746 0.5294 0
M  V30 9 Pb -7.6003 -0.4070 -0.4140 0
M  V30 10 Pb -7.3299 -0.6991 1.5553 0
M  V30 11 Pd 3.1112 3.6358 3.4634 0
M  V30 12 Pb 2.4561 3.2337 4.0897 0
M  V30 13 Pb 2.4496 4.3516 3.2439 0
M  V30 14 Pb 3.7502 4.0894 2.8423 0
M  V30 15 Pb 3.7316 2.8342 3.5997 0
M  V30 16 Pd 5.1433 4.1311 -3.5876 0
M  V30 17 Pb 5.3256 4.7404 -2.8207 0
M  V30 18 Pb 5.9209 3.5796 -3.2976 0
M  V30 19 Pb 4.3116 4.6335 -3.8230 0
M  V30 20 Pb 4.9159 3.3960 -4.2258 0
M  V30 21 Pd -2.2145 4.7922 -1.6842 0
M  V30 22 Pb -2.9535 4.4887 -1.0835 0
M  V30 23 Pb -1.7528 5.2072 -0.8990 0
M  V30 24 Pb -1.4736 5.0984 -2.2839 0
M  V30 25 Pb -2.6735 4.3595 -2.4611 0
M  V30 26 Pd 5.2870 -2.7173 -1.9523 0
M  V30 27 Pb 6.0137 -2.0395 -1.8772 0
M  V30 28 Pb 5.5596 -3.1050 -1.0704 0
M  V30 29 Pb 4.5371 -3.3699 -2.0556 0
M  V30 30 Pb 5.0160 -2.2573 -2.8002 0
M  V30 31 Pd 3.7206 -2.3397 3.4242 0
M  V30 32 Pb 3.2206 -3.1924 3.2795 0
M  V30 33 Pb 4.4581 -2.6862 2.8386 0
M  V30 34 Pb 4.1669 -1.4265 3.5413 0
M  V30 35 Pb 2.9926 -2.0531 4.0330 0
M  V30 36 Pd -3.6393 -0.3394 -3.0851 0
M  V30 37 Pb -3.7203 0.5848 -3.4631 0
M  V30 38 Pb -3.5167 -1.2650 -2.7245 0
M  V30 39 Pb -4.6406 -0.4142 -3.1136 0
M  V30 40 Pb -2.6463 -0.2467 -3.0197 0
M  V30 41 Pd -4.0484 -3.7477 2.9816 0
M  V30 42 Pb -4.7558 -4.4480 2.9188 0
M  V30 43 Pb -3.3651 -3.0164 2.9740 0
M  V30 44 Pb -3.5348 -4.2085 2.2662 0
M  V30 45 Pb -4.7014 -3.1411 3.4523 0
M  V30 46 Ag -6.7159 1.0337 0.7182 0
M  V30 47 Fe -5.1052 2.6366 0.0288 0
M  V30 48 Ag -3.5070 4.2646 -0.6304 0
M  V30 49 Ag 3.6607 4.9787 -3.9626 0
M  V30 50 Fe 1.3676 5.1850 -3.3773 0
M  V30 51 Ag -0.9132 5.3277 -2.7283 0
M  V30 52 Ag 6.4337 3.0972 -3.0513 0
M  V30 53 Fe 6.6625 0.8256 -2.4180 0
M  V30 54 Ag 6.5029 -1.4763 -1.8794 0
M  V30 55 Ag -8.2719 -2.0711 0.5949 0
M  V30 56 Fe -7.2317 -3.9176 1.6204 0
M  V30 57 Ag -5.3761 -4.8190 2.7536 0
M  V30 58 Ag 2.0141 2.8259 4.5172 0
M  V30 59 Fe 1.8661 0.5004 4.8293 0
M  V30 60 Ag 2.4788 -1.7394 4.4604 0
M  V30 61 Ag 4.7637 2.7543 -4.5833 0
M  V30 62 Fe 4.7482 0.4165 -4.1577 0
M  V30 63 Ag 4.8458 -1.8331 -3.3973 0
M  V30 64 Ag 4.1722 4.4834 2.3634 0
M  V30 65 Fe 4.8710 4.8728 0.1289 0
M  V30 66 Ag 5.4443 5.0769 -2.1649 0
M  V30 67 Ag -3.3392 -1.9352 -2.4354 0
M  V30 68 Fe -3.2099 -3.3184 -0.5114 0
M  V30 69 Ag -3.2657 -4.4000 1.5992 0
M  V30 70 Ag 1.9347 4.8437 3.0112 0
M  V30 71 Fe 0.2493 5.2433 1.3862 0
M  V30 72 Ag -1.4018 5.4981 -0.3023 0
M  V30 73 Ba 0.6779 -4.0688 1.1167 0
M  V30 74 Ga 1.7237 -3.9904 2.1520 0
M  V30 75 Ba 2.7933 -3.7930 3.1464 0
M  V30 76 Ba -3.0217 4.0308 -3.0394 0
M  V30 77 Ga -3.3983 2.6467 -3.3905 0
M  V30 78 Ba -3.7851 1.2711 -3.7632 0
M  V30 79 Ba 4.2136 2.2376 3.6921 0
M  V30 80 Ga 4.2822 0.7376 3.6496 0
M  V30 81 Ba 4.5175 -0.7460 3.6467 0
M  V30 82 Ba -7.1535 -0.8648 2.2808 0
M  V30 83 Ga -6.1918 -1.7579 2.9925 0
M  V30 84 Ba -5.2286 -2.6525 3.7002 0
M  V30 85 Ba -7.5958 -0.3827 -1.1650 0
M  V30 86 Ga -6.5006 -0.3990 -2.1596 0
M  V30 87 Ba -5.3948 -0.4173 -3.1423 0
M  V30 88 Ba 1.1647 -3.8596 -1.2162 0
M  V30 89 Ga 2.5593 -3.8549 -1.6948 0
M  V30 90 Ba 3.9574 -3.8330 -2.1624 0
M  V30 91 Ba 0.1068 -1.6005 -1.2899 0
M  V30 92 Ga -0.9109 -0.9103 -2.1088 0
M  V30 93 Ba -1.9021 -0.1994 -2.9425 0
M  V30 94 Ba -0.5484 -1.9491 1.1611 0
M  V30 95 Ga -1.7050 -2.1986 2.0456 0
M  V30 96 Ba -2.8638 -2.4594 2.9237 0
M  V30 97 Ba 5.7947 -3.3479 -0.3993 0
M  V30 98 Ga 5.3741 -3.1640 1.0060 0
M  V30 99 Ba 4.9994 -3.0123 2.4281 0
M  V30 END ATOM
M  V30 BEGIN BOND
M  V30 1 1 1 2
M  V30 2 1 1 3
M  V30 3 1 1 4
M  V30 4 1 1 5
M  V30 5 1 6 7
M  V30 6 1 6 8
M  V30 7 1 6 9
M  V30 8 1 6 10
M  V30 9 1 11 12
M  V30 10 1 11 13
M  V30 11 1 11 14
M  V30 12 1 11 15
M  V30 13 1 16 17
M  V30 14 1 16 18
M  V30 15 1 16 19
M  V30 16 1 16 20
M  V30 17 1 21 22
M  V30 18 1 21 23
M  V30 19 1 21 24
M  V30 20 1 21 25
M  V30 21 1 26 27
M  V30 22 1 26 28
M  V30 23 1 26 29
M  V30 24 1 26 30
M  V30 25 1 31 32
M  V30 26 1 31 33
M  V30 27 1 31 34
M  V30 28 1 31 35
M  V30 29 1 36 37
M  V30 30 1 36 38
M  V30 31 1 36 39
M  V30 32 1 36 40
M  V30 33 1 41 42
M  V30 34 1 41 43
M  V30 35 1 41 44
M  V30 36 1 41 45
M  V30 37 1 46 47
M  V30 38 1 47 48
M  V30 39 1 49 50
M  V30 40 1 50 51
M  V30 41 1 52 53
M  V30 42 1 53 54
M  V30 43 1 55 56
M  V30 44 1 56 57
M  V30 45 1 58 59
M  V30 46 1 59 60
M  V30 47 1 61 62
M  V30 48 1 62 63
M  V30 49 1 64 65
M  V30 50 1 65 66
M  V30 51 1 67 68
M  V30 52 1 68 69
M  V30 53 1 70 71
M  V30 54 1 71 72
M  V30 55 1 73 74
M  V30 56 1 74 75
M  V30 57 1 76 77
M  V30 58 1 77 78
M  V30 59 1 79 80
M  V30 60 1 80 81
M  V30 61 1 82 83
M  V30 62 1 83 84
M  V30 63 1 85 86
M  V30 64 1 86 87
M  V30 65 1 88 89
M  V30 66 1 89 90
M  V30 67 1 91 92
M  V30 68 1 92 93
M  V30 69 1 94 95
M  V30 70 1 95 96
M  V30 71 1 97 98
M  V30 72 1 98 99
M  V30 73 1 2 73
M  V30 74 1 3 94
M  V30 75 1 4 88
M  V30 76 1 5 91
M  V30 77 1 7 46
M  V30 78 1 8 55
M  V30 79 1 9 85
M  V30 80 1 10 82
M  V30 81 1 12 58
M  V30 82 1 13 70
M  V30 83 1 14 64
M  V30 84 1 15 79
M  V30 85 1 17 66
M  V30 86 1 18 52
M  V30 87 1 19 49
M  V30 88 1 20 61
M  V30 89 1 22 48
M  V30 90 1 23 72
M  V30 91 1 24 51
M  V30 92 1 25 76
M  V30 93 1 27 54
M  V30 94 1 28 97
M  V30 95 1 29 90
M  V30 96 1 30 63
M  V30 97 1 32 75
M  V30 98 1 33 99
M  V30 99 1 34 81
M  V30 100 1 35 60
M  V30 101 1 37 78
M  V30 102 1 38 67
M  V30 103 1 39 87
M  V30 104 1 40 93
M  V30 105 1 42 57
M  V30 106 1 43 96
M  V30 107 1 44 69
M  V30 108 1 45 84
M  V30 END BOND
M  V30 END CTAB
M  END

$$$$
