
     RDKit          3D

  0  0  0  0  0  0  0  0  0  0999 V3000
M  V30 BEGIN CTAB
M  V30 COUNTS 99 108 0 0 0
M  V30 BEGIN ATOM
M  V30 1 Pd -0.7207 3.5679 2.8452 0
M  V30 2 Pb -0.3274 4.1015 2.1000 0
M  V30 3 Pb -1.5525 4.0892 2.6937 0
M  V30 4 Pb 0.1493 3.0775 2.9499 0
M  V30 5 Pb -1.1958 3.0050 3.5239 0
M  V30 6 Pd 5.0030 -1.7830 4.6369 0
M  V30 7 Pb 5.4139 -2.5867 5.0615 0
M  V30 8 Pb 4.1397 -2.2937 4.5329 0
M  V30 9 Pb 4.5942 -0.9627 4.2296 0
M  V30 10 Pb 5.9267 -1.4280 4.4980 0
M  V30 11 Pd 4.0744 -5.0708 0.7569 0
M  V30 12 Pb 3.5658 -4.4061 0.2165 0
M  V30 13 Pb 3.4696 -4.8836 1.5452 0
M  V30 14 Pb 4.7946 -5.0688 0.0682 0
M  V30 15 Pb 4.5746 -5.7428 1.2989 0
M  V30 16 Pd 3.5131 2.8772 -3.0176 0
M  V30 17 Pb 4.1587 2.0870 -3.0889 0
M  V30 18 Pb 2.8280 2.4524 -3.6150 0
M  V30 19 Pb 4.1641 3.3613 -2.4509 0
M  V30 20 Pb 2.8769 3.6088 -2.7971 0
M  V30 21 Pd -2.8348 -2.9184 -1.8129 0
M  V30 22 Pb -2.9108 -2.6983 -0.8210 0
M  V30 23 Pb -2.7659 -3.0814 -2.7959 0
M  V30 24 Pb -1.8522 -2.7553 -1.7754 0
M  V30 25 Pb -3.8172 -3.0499 -1.8644 0
M  V30 26 Pd 7.1551 -0.8783 -0.0263 0
M  V30 27 Pb 7.3043 0.0624 0.2427 0
M  V30 28 Pb 6.7348 -0.5690 -0.9094 0
M  V30 29 Pb 7.0811 -1.8348 -0.3325 0
M  V30 30 Pb 7.5332 -1.1024 0.8777 0
M  V30 31 Pd -7.1521 3.2884 -0.9054 0
M  V30 32 Pb -7.7533 2.6234 -1.3330 0
M  V30 33 Pb -7.5800 3.1706 -0.0077 0
M  V30 34 Pb -6.6163 3.3594 -1.7718 0
M  V30 35 Pb -6.5603 3.9456 -0.4537 0
M  V30 36 Pd -5.2442 0.3597 2.6060 0
M  V30 37 Pb -5.9342 1.0577 2.8036 0
M  V30 38 Pb -5.9238 -0.0573 2.0151 0
M  V30 39 Pb -4.5748 0.7415 3.2544 0
M  V30 40 Pb -4.5788 -0.3591 2.3298 0
M  V30 41 Pd -3.8544 0.5531 -5.0743 0
M  V30 42 Pb -2.8948 0.8471 -5.1247 0
M  V30 43 Pb -4.1944 1.4451 -4.7162 0
M  V30 44 Pb -4.7891 0.2178 -5.0573 0
M  V30 45 Pb -3.5500 -0.3531 -5.3622 0
M  V30 46 Ag -8.0721 2.0986 -1.7443 0
M  V30 47 Fe -7.1733 0.7889 -3.4819 0
M  V30 48 Ag -5.5000 0.0365 -4.9580 0
M  V30 49 Ag -2.1475 4.4910 2.5013 0
M  V30 50 Fe -4.1585 4.5396 1.2547 0
M  V30 51 Ag -6.1325 4.3927 -0.0423 0
M  V30 52 Ag 2.2988 2.1953 -4.0859 0
M  V30 53 Fe 0.0484 1.6000 -4.5815 0
M  V30 54 Ag -2.1565 0.9733 -5.2211 0
M  V30 55 Ag 3.1676 -3.9189 -0.1845 0
M  V30 56 Fe 1.0384 -3.2480 -0.9829 0
M  V30 57 Ag -1.1169 -2.6268 -1.7507 0
M  V30 58 Ag 4.6637 3.6376 -1.9857 0
M  V30 59 Fe 6.2429 2.6280 -0.5718 0
M  V30 60 Ag 7.3623 0.7870 0.3607 0
M  V30 61 Ag 5.6879 -3.2556 5.2288 0
M  V30 62 Fe 5.6358 -5.1779 3.8765 0
M  V30 63 Ag 4.9473 -6.1037 1.8287 0
M  V30 64 Ag -0.1005 4.4735 1.4923 0
M  V30 65 Fe 1.1236 4.4279 -0.5370 0
M  V30 66 Ag 2.4309 4.1193 -2.4896 0
M  V30 67 Ag -4.5525 -3.0329 -1.7983 0
M  V30 68 Fe -5.9095 -1.8588 -0.2763 0
M  V30 69 Ag -6.3519 -0.4277 1.5391 0
M  V30 70 Ag 0.8378 2.7700 2.9636 0
M  V30 71 Fe 2.5089 1.1624 3.4944 0
M  V30 72 Ag 4.3050 -0.3351 3.9310 0
M  V30 73 Ba 4.6448 1.4877 -3.1342 0
M  V30 74 Ga 5.5218 0.6048 -2.2900 0
M  V30 75 Ba 6.4409 -0.3620 -1.5960 0
M  V30 76 Ba -1.6069 2.5960 4.0029 0
M  V30 77 Ga -2.8413 1.7880 3.8670 0
M  V30 78 Ba -4.0746 0.9726 3.7736 0
M  V30 79 Ba 6.6364 -1.2904 4.2937 0
M  V30 80 Ga 7.2468 -1.2056 2.9465 0
M  V30 81 Ba 7.8138 -1.1319 1.5796 0
M  V30 82 Ba -7.7971 3.1013 0.7091 0
M  V30 83 Ga -7.1926 2.3405 1.8237 0
M  V30 84 Ba -6.5094 1.5388 2.8614 0
M  V30 85 Ba 3.5443 -2.7392 4.3732 0
M  V30 86 Ga 3.2835 -3.7109 3.2714 0
M  V30 87 Ba 3.0604 -4.6736 2.1534 0
M  V30 88 Ba -2.7261 -3.1462 -3.5406 0
M  V30 89 Ga -3.0084 -2.1459 -4.5833 0
M  V30 90 Ba -3.3242 -1.0500 -5.5142 0
M  V30 91 Ba -6.1879 3.4507 -2.4060 0
M  V30 92 Ga -5.3458 2.7108 -3.4017 0
M  V30 93 Ba -4.4773 2.1172 -4.4702 0
M  V30 94 Ba -2.9232 -2.5536 -0.0665 0
M  V30 95 Ga -3.5534 -1.6913 0.9814 0
M  V30 96 Ba -4.0830 -0.9152 2.1460 0
M  V30 97 Ba 5.3775 -4.9593 -0.3871 0
M  V30 98 Ga 6.2239 -3.7534 -0.5197 0
M  V30 99 Ba 7.0526 -2.5325 -0.6258 0
M  V30 END ATOM
M  V30 BEGIN BOND
M  V30 1 1 1 2
M  V30 2 1 1 3
M  V30 3 1 1 4
M  V30 4 1 1 5
M  V30 5 1 6 7
M  V30 6 1 6 8
M  V30 7 1 6 9
M  V30 8 1 6 10
M  V30 9 1 11 12
M  V30 10 1 11 13
M  V30 11 1 11 14
M  V30 12 1 11 15
M  V30 13 1 16 17
M  V30 14 1 16 18
M  V30 15 1 16 19
M  V30 16 1 16 20
M  V30 17 1 21 22
M  V30 18 1 21 23
M  V30 19 1 21 24
M  V30 20 1 21 25
M  V30 21 1 26 27
M  V30 22 1 26 28
M  V30 23 1 26 29
M  V30 24 1 26 30
M  V30 25 1 31 32
M  V30 26 1 31 33
M  V30 27 1 31 34
M  V30 28 1 31 35
M  V30 29 1 36 37
M  V30 30 1 36 38
M  V30 31 1 36 39
M  V30 32 1 36 40
M  V30 33 1 41 42
M  V30 34 1 41 43
M  V30 35 1 41 44
M  V30 36 1 41 45
M  V30 37 1 46 47
M  V30 38 1 47 48
M  V30 39 1 49 50
M  V30 40 1 50 51
M  V30 41 1 52 53
M  V30 42 1 53 54
M  V30 43 1 55 56
M  V30 44 1 56 57
M  V30 45 1 58 59
M  V30 46 1 59 60
M  V30 47 1 61 62
M  V30 48 1 62 63
M  V30 49 1 64 65
M  V30 50 1 65 66
M  V30 51 1 67 68
M  V30 52 1 68 69
M  V30 53 1 70 71
M  V30 54 1 71 72
M  V30 55 1 73 74
M  V30 56 1 74 75
M  V30 57 1 76 77
M  V30 58 1 77 78
M  V30 59 1 79 80
M  V30 60 1 80 81
M  V30 61 1 82 83
M  V30 62 1 83 84
M  V30 63 1 85 86
M  V30 64 1 86 87
M  V30 65 1 88 89
M  V30 66 1 89 90
M  V30 67 1 91 92
M  V30 68 1 92 93
M  V30 69 1 94 95
M  V30 70 1 95 96
M  V30 71 1 97 98
M  V30 72 1 98 99
M  V30 73 1 2 64
M  V30 74 1 3 49
M  V30 75 1 4 70
M  V30 76 1 5 76
M  V30 77 1 7 61
M  V30 78 1 8 85
M  V30 79 1 9 72
M  V30 80 1 10 79
M  V30 81 1 12 55
M  V30 82 1 13 87
M  V30 83 1 14 97
M  V30 84 1 15 63
M  V30 85 1 17 73
M  V30 86 1 18 52
M  V30 87 1 19 58
M  V30 88 1 20 66
M  V30 89 1 22 94
M  V30 90 1 23 88
M  V30 91 1 24 57
M  V30 92 1 25 67
M  V30 93 1 27 60
M  V30 94 1 28 75
M  V30 95 1 29 99
M  V30 96 1 30 81
M  V30 97 1 32 46
M  V30 98 1 33 82
M  V30 99 1 34 91
M  V30 100 1 35 51
M  V30 101 1 37 84
M  V30 102 1 38 69
M  V30 103 1 39 78
M  V30 104 1 40 96
M  V30 105 1 42 54
M  V30 106 1 43 93
M  V30 107 1 44 48
M  V30 108 1 45 90
M  V30 END BOND
M  V30 END CTAB
M  END

$$$$
