
     RDKit          3D

  0  0  0  0  0  0  0  0  0  0999 V3000
M  V30 BEGIN CTAB
M  V30 COUNTS 99 108 0 0 0
M  V30 BEGIN ATOM
M  V30 1 Pd -3.1412 0.9046 -3.6813 0
M  V30 2 Pb -2.2578 1.0303 -4.1283 0
M  V30 3 Pb -3.2510 1.8921 -3.7665 0
M  V30 4 Pb -2.9926 -0.0852 -3.6945 0
M  V30 5 Pb -3.9749 0.8081 -3.1339 0
M  V30 6 Pd -3.0808 -4.4603 -1.1449 0
M  V30 7 Pb -3.2746 -3.6958 -0.5240 0
M  V30 8 Pb -3.2871 -5.0607 -0.3791 0
M  V30 9 Pb -2.8951 -3.8684 -1.9292 0
M  V30 10 Pb -2.7229 -5.2438 -1.6541 0
M  V30 11 Pd -0.2548 -4.2399 4.9357 0
M  V30 12 Pb 0.5186 -3.6102 4.9704 0
M  V30 13 Pb -1.0057 -4.8751 4.7960 0
M  V30 14 Pb 0.3726 -5.0103 4.8628 0
M  V30 15 Pb -0.8928 -3.5007 4.7111 0
M  V30 16 Pd 3.8467 -0.9824 -2.5290 0
M  V30 17 Pb 3.3698 -1.6848 -3.0576 0
M  V30 18 Pb 4.3473 -0.2778 -2.0169 0
M  V30 19 Pb 4.2421 -1.7024 -1.9569 0
M  V30 20 Pb 3.3962 -0.3060 -3.1065 0
M  V30 21 Pd 0.6910 1.0569 3.7360 0
M  V30 22 Pb 0.1728 1.9000 3.6268 0
M  V30 23 Pb 1.5380 1.5794 3.8423 0
M  V30 24 Pb 1.2070 0.2274 3.9447 0
M  V30 25 Pb -0.1486 0.5311 3.5640 0
M  V30 26 Pd 1.9645 -5.8219 -1.4265 0
M  V30 27 Pb 2.8006 -5.3355 -1.1602 0
M  V30 28 Pb 1.9569 -5.3114 -2.2838 0
M  V30 29 Pb 1.9894 -6.2950 -0.5434 0
M  V30 30 Pb 1.1159 -6.2806 -1.7109 0
M  V30 31 Pd 0.0511 7.1964 -1.5474 0
M  V30 32 Pb 0.9072 6.9323 -1.9946 0
M  V30 33 Pb -0.8259 7.3374 -1.0949 0
M  V30 34 Pb 0.5630 7.3732 -0.7099 0
M  V30 35 Pb -0.5020 6.9248 -2.3295 0
M  V30 36 Pd -3.9488 2.2471 1.3530 0
M  V30 37 Pb -4.2174 3.1521 1.0309 0
M  V30 38 Pb -3.6165 1.3746 1.7209 0
M  V30 39 Pb -4.5421 1.7896 0.6849 0
M  V30 40 Pb -3.3299 2.7299 1.9665 0
M  V30 41 Pd 3.7455 4.1457 0.4064 0
M  V30 42 Pb 4.2566 3.3528 0.0592 0
M  V30 43 Pb 3.2977 4.9670 0.7626 0
M  V30 44 Pb 3.6765 4.5379 -0.5139 0
M  V30 45 Pb 3.8067 3.7883 1.3408 0
M  V30 46 Ag -3.2307 2.6264 -3.9061 0
M  V30 47 Fe -2.1778 4.7000 -3.4422 0
M  V30 48 Ag -1.0040 6.6628 -2.8154 0
M  V30 49 Ag -1.5208 7.3079 -0.8228 0
M  V30 50 Fe -3.0642 5.7252 0.0352 0
M  V30 51 Ag -4.2994 3.8734 0.8529 0
M  V30 52 Ag -3.4085 -5.4541 0.2403 0
M  V30 53 Fe -2.6572 -5.5977 2.4773 0
M  V30 54 Ag -1.5502 -5.3123 4.5462 0
M  V30 55 Ag -3.3262 -3.2077 0.0493 0
M  V30 56 Fe -2.4660 -2.9248 2.2514 0
M  V30 57 Ag -1.3777 -3.0388 4.3659 0
M  V30 58 Ag -1.5669 1.1575 -4.3851 0
M  V30 59 Fe 0.7417 0.7171 -4.0652 0
M  V30 60 Ag 2.9806 0.1234 -3.5548 0
M  V30 61 Ag 0.7895 -5.5710 4.5988 0
M  V30 62 Fe 1.5177 -6.2450 2.4417 0
M  V30 63 Ag 2.0435 -6.5812 0.1501 0
M  V30 64 Ba 1.5490 6.6796 -2.2935 0
M  V30 65 Ga 2.5952 5.7780 -1.7661 0
M  V30 66 Ba 3.6089 4.8719 -1.1852 0
M  V30 67 Ba 3.0164 -2.2053 -3.4662 0
M  V30 68 Ga 2.4851 -3.5544 -3.2037 0
M  V30 69 Ba 1.9642 -4.9007 -2.9086 0
M  V30 70 Ba 4.7696 0.2203 -1.6395 0
M  V30 71 Ga 4.6577 1.5092 -0.9193 0
M  V30 72 Ba 4.6995 2.7871 -0.1726 0
M  V30 73 Ba 1.1154 -3.1600 4.9411 0
M  V30 74 Ga 1.3530 -1.7599 4.5486 0
M  V30 75 Ba 1.6147 -0.3632 4.1599 0
M  V30 76 Ba -4.5691 0.7409 -2.6774 0
M  V30 77 Ga -4.7900 1.0962 -1.2583 0
M  V30 78 Ba -4.9773 1.4640 0.1626 0
M  V30 79 Ba 4.5024 -2.2717 -1.5415 0
M  V30 80 Ga 3.9745 -3.6199 -1.2432 0
M  V30 81 Ba 3.4240 -4.9625 -0.9609 0
M  V30 82 Ba -2.3803 -5.8344 -1.9680 0
M  V30 83 Ga -0.9546 -6.2338 -1.9811 0
M  V30 84 Ba 0.4806 -6.5979 -1.9698 0
M  V30 85 Ba 2.1885 1.9506 3.8984 0
M  V30 86 Ga 3.0138 2.7509 2.9704 0
M  V30 87 Ba 3.8502 3.5530 2.0542 0
M  V30 88 Ba 0.9558 7.4327 -0.0768 0
M  V30 89 Ga 1.9766 6.5385 0.4985 0
M  V30 90 Ba 2.9894 5.6023 1.0185 0
M  V30 91 Ba -0.7765 0.1423 3.4039 0
M  V30 92 Ga -2.0567 0.4399 2.7193 0
M  V30 93 Ba -3.3331 0.7496 2.0331 0
M  V30 94 Ba -2.8325 -0.8121 -3.7947 0
M  V30 95 Ga -2.8227 -2.1155 -3.1030 0
M  V30 96 Ba -2.7529 -3.4849 -2.5578 0
M  V30 97 Ba -0.2393 2.5205 3.5900 0
M  V30 98 Ga -1.5439 2.8346 2.9912 0
M  V30 99 Ba -2.8503 3.1221 2.3829 0
M  V30 END ATOM
M  V30 BEGIN BOND
M  V30 1 1 1 2
M  V30 2 1 1 3
M  V30 3 1 1 4
M  V30 4 1 1 5
M  V30 5 1 6 7
M  V30 6 1 6 8
M  V30 7 1 6 9
M  V30 8 1 6 10
M  V30 9 1 11 12
M  V30 10 1 11 13
M  V30 11 1 11 14
M  V30 12 1 11 15
M  V30 13 1 16 17
M  V30 14 1 16 18
M  V30 15 1 16 19
M  V30 16 1 16 20
M  V30 17 1 21 22
M  V30 18 1 21 23
M  V30 19 1 21 24
M  V30 20 1 21 25
M  V30 21 1 26 27
M  V30 22 1 26 28
M  V30 23 1 26 29
M  V30 24 1 26 30
M  V30 25 1 31 32
M  V30 26 1 31 33
M  V30 27 1 31 34
M  V30 28 1 31 35
M  V30 29 1 36 37
M  V30 30 1 36 38
M  V30 31 1 36 39
M  V30 32 1 36 40
M  V30 33 1 41 42
M  V30 34 1 41 43
M  V30 35 1 41 44
M  V30 36 1 41 45
M  V30 37 1 46 47
M  V30 38 1 47 48
M  V30 39 1 49 50
M  V30 40 1 50 51
M  V30 41 1 52 53
M  V30 42 1 53 54
M  V30 43 1 55 56
M  V30 44 1 56 57
M  V30 45 1 58 59
M  V30 46 1 59 60
M  V30 47 1 61 62
M  V30 48 1 62 63
M  V30 49 1 64 65
M  V30 50 1 65 66
M  V30 51 1 67 68
M  V30 52 1 68 69
M  V30 53 1 70 71
M  V30 54 1 71 72
M  V30 55 1 73 74
M  V30 56 1 74 75
M  V30 57 1 76 77
M  V30 58 1 77 78
M  V30 59 1 79 80
M  V30 60 1 80 81
M  V30 61 1 82 83
M  V30 62 1 83 84
M  V30 63 1 85 86
M  V30 64 1 86 87
M  V30 65 1 88 89
M  V30 66 1 89 90
M  V30 67 1 91 92
M  V30 68 1 92 93
M  V30 69 1 94 95
M  V30 70 1 95 96
M  V30 71 1 97 98
M  V30 72 1 98 99
M  V30 73 1 2 58
M  V30 74 1 3 46
M  V30 75 1 4 94
M  V30 76 1 5 76
M  V30 77 1 7 55
M  V30 78 1 8 52
M  V30 79 1 9 96
M  V30 80 1 10 82
M  V30 81 1 12 73
M  V30 82 1 13 54
M  V30 83 1 14 61
M  V30 84 1 15 57
M  V30 85 1 17 67
M  V30 86 1 18 70
M  V30 87 1 19 79
M  V30 88 1 20 60
M  V30 89 1 22 97
M  V30 90 1 23 85
M  V30 91 1 24 75
M  V30 92 1 25 91
M  V30 93 1 27 81
M  V30 94 1 28 69
M  V30 95 1 29 63
M  V30 96 1 30 84
M  V30 97 1 32 64
M  V30 98 1 33 49
M  V30 99 1 34 88
M  V30 100 1 35 48
M  V30 101 1 37 51
M  V30 102 1 38 93
M  V30 103 1 39 78
M  V30 104 1 40 99
M  V30 105 1 42 72
M  V30 106 1 43 90
M  V30 107 1 44 66
M  V30 108 1 45 87
M  V30 END BOND
M  V30 END CTAB
M  END

$$$$
