
     RDKit          3D

  0  0  0  0  0  0  0  0  0  0999 V3000
M  V30 BEGIN CTAB
M  V30 COUNTS 99 108 0 0 0
M  V30 BEGIN ATOM
M  V30 1 Pd 6.1172 3.6319 -1.9522 0
M  V30 2 Pb 6.5326 2.7708 -1.6736 0
M  V30 3 Pb 5.6075 4.3919 -2.3896 0
M  V30 4 Pb 6.8828 3.8175 -2.5605 0
M  V30 5 Pb 5.3559 3.3827 -1.3461 0
M  V30 6 Pd 3.4916 4.3552 -6.8551 0
M  V30 7 Pb 3.3093 3.6596 -7.5519 0
M  V30 8 Pb 4.4544 4.3821 -7.1060 0
M  V30 9 Pb 3.7027 4.9191 -6.0371 0
M  V30 10 Pb 2.5202 4.3501 -6.6292 0
M  V30 11 Pd 1.4203 -0.8731 4.0138 0
M  V30 12 Pb 1.5336 -1.7667 3.5795 0
M  V30 13 Pb 1.1969 0.0225 4.4020 0
M  V30 14 Pb 1.1856 -1.3393 4.8640 0
M  V30 15 Pb 1.6648 -0.4163 3.1614 0
M  V30 16 Pd -4.3678 -4.0297 6.6585 0
M  V30 17 Pb -5.2246 -3.8766 6.1542 0
M  V30 18 Pb -4.0666 -4.6759 5.9545 0
M  V30 19 Pb -4.6445 -3.3164 7.2979 0
M  V30 20 Pb -3.4636 -4.0516 7.0735 0
M  V30 21 Pd 2.0740 -1.7510 -1.6404 0
M  V30 22 Pb 1.0770 -1.7021 -1.6233 0
M  V30 23 Pb 2.0445 -2.2633 -2.5004 0
M  V30 24 Pb 2.1105 -1.1205 -0.8652 0
M  V30 25 Pb 3.0721 -1.7633 -1.6219 0
M  V30 26 Pd 0.6009 0.2836 -6.0143 0
M  V30 27 Pb 1.1822 0.4482 -6.8157 0
M  V30 28 Pb 0.0052 0.1720 -5.2222 0
M  V30 29 Pb 0.2861 1.2274 -6.0812 0
M  V30 30 Pb 0.9385 -0.6529 -5.8906 0
M  V30 31 Pd -2.2412 -3.6620 1.4718 0
M  V30 32 Pb -1.9798 -3.0513 0.7228 0
M  V30 33 Pb -3.1870 -3.4538 1.2172 0
M  V30 34 Pb -1.2793 -3.8410 1.6944 0
M  V30 35 Pb -2.5273 -4.3166 2.1801 0
M  V30 36 Pd -1.0680 2.1678 1.3674 0
M  V30 37 Pb -2.0522 2.3197 1.4945 0
M  V30 38 Pb -0.8536 2.4527 2.3021 0
M  V30 39 Pb -0.0802 2.0816 1.2154 0
M  V30 40 Pb -1.2664 1.7750 0.4710 0
M  V30 41 Pd -6.0439 -0.1461 3.0528 0
M  V30 42 Pb -6.1447 0.3532 3.9100 0
M  V30 43 Pb -6.3996 -0.9704 3.5161 0
M  V30 44 Pb -5.9321 -0.7068 2.2330 0
M  V30 45 Pb -5.6622 0.6697 2.6138 0
M  V30 46 Ag 0.9858 -1.7280 5.4703 0
M  V30 47 Fe -0.7851 -2.8959 6.5269 0
M  V30 48 Ag -2.7577 -3.9623 7.2927 0
M  V30 49 Ag -4.8743 -2.6814 7.6073 0
M  V30 50 Fe -5.6311 -0.7231 6.5324 0
M  V30 51 Ag -6.1751 0.5530 4.6250 0
M  V30 52 Ag 7.3344 3.9397 -3.1346 0
M  V30 53 Fe 6.7728 4.2386 -5.4004 0
M  V30 54 Ag 5.1941 4.4086 -7.1378 0
M  V30 55 Ag 4.8502 3.0937 -0.8658 0
M  V30 56 Fe 2.7113 2.6281 0.0666 0
M  V30 57 Ag 0.6690 2.0524 1.1435 0
M  V30 58 Ag -0.4531 0.1371 -4.6326 0
M  V30 59 Fe -0.9327 0.7842 -2.4006 0
M  V30 60 Ag -1.4290 1.4235 -0.1699 0
M  V30 61 Ag 6.6917 2.0544 -1.5437 0
M  V30 62 Fe 5.4551 0.0333 -1.4981 0
M  V30 63 Ag 3.8113 -1.6736 -1.5512 0
M  V30 64 Ba -2.7886 2.4767 1.5326 0
M  V30 65 Ga -4.0642 1.8479 1.9378 0
M  V30 66 Ba -5.3858 1.3026 2.3160 0
M  V30 67 Ba 1.7861 4.3143 -6.4936 0
M  V30 68 Ga 0.8946 3.1622 -6.2925 0
M  V30 69 Ba 0.0881 1.9475 -6.1018 0
M  V30 70 Ba 5.2285 4.9394 -2.7667 0
M  V30 71 Ga 4.5528 5.0967 -4.0919 0
M  V30 72 Ba 3.8628 5.3151 -5.4009 0
M  V30 73 Ba -3.8627 -3.2468 0.9605 0
M  V30 74 Ga -4.8652 -2.2220 1.3142 0
M  V30 75 Ba -5.8678 -1.1980 1.6698 0
M  V30 76 Ba 2.0107 -2.5768 -3.1830 0
M  V30 77 Ga 1.6051 -2.0038 -4.4848 0
M  V30 78 Ba 1.1831 -1.3498 -5.7425 0
M  V30 79 Ba 3.1683 3.0722 -7.9998 0
M  V30 80 Ga 2.3882 1.8398 -7.7505 0
M  V30 81 Ba 1.5895 0.6385 -7.4210 0
M  V30 82 Ba 1.5547 -2.4385 3.2463 0
M  V30 83 Ga 0.5141 -3.2193 2.5458 0
M  V30 84 Ba -0.5541 -3.9692 1.8527 0
M  V30 85 Ba 0.3324 -1.6339 -1.5903 0
M  V30 86 Ga -0.7391 -2.1393 -0.7115 0
M  V30 87 Ba -1.8569 -2.6076 0.1290 0
M  V30 88 Ba 1.8511 -0.0529 2.5353 0
M  V30 89 Ga 1.9935 -0.3686 1.1029 0
M  V30 90 Ba 2.1635 -0.5824 -0.3451 0
M  V30 91 Ba -5.8492 -3.7141 5.7591 0
M  V30 92 Ga -6.2436 -2.6435 4.8064 0
M  V30 93 Ba -6.6804 -1.5928 3.8501 0
M  V30 94 Ba -3.8363 -5.1385 5.4080 0
M  V30 95 Ga -3.2822 -4.9628 4.0464 0
M  V30 96 Ba -2.7253 -4.8484 2.6795 0
M  V30 97 Ba 0.9713 0.7046 4.6229 0
M  V30 98 Ga 0.1720 1.6993 3.8790 0
M  V30 99 Ba -0.6278 2.5825 3.0063 0
M  V30 END ATOM
M  V30 BEGIN BOND
M  V30 1 1 1 2
M  V30 2 1 1 3
M  V30 3 1 1 4
M  V30 4 1 1 5
M  V30 5 1 6 7
M  V30 6 1 6 8
M  V30 7 1 6 9
M  V30 8 1 6 10
M  V30 9 1 11 12
M  V30 10 1 11 13
M  V30 11 1 11 14
M  V30 12 1 11 15
M  V30 13 1 16 17
M  V30 14 1 16 18
M  V30 15 1 16 19
M  V30 16 1 16 20
M  V30 17 1 21 22
M  V30 18 1 21 23
M  V30 19 1 21 24
M  V30 20 1 21 25
M  V30 21 1 26 27
M  V30 22 1 26 28
M  V30 23 1 26 29
M  V30 24 1 26 30
M  V30 25 1 31 32
M  V30 26 1 31 33
M  V30 27 1 31 34
M  V30 28 1 31 35
M  V30 29 1 36 37
M  V30 30 1 36 38
M  V30 31 1 36 39
M  V30 32 1 36 40
M  V30 33 1 41 42
M  V30 34 1 41 43
M  V30 35 1 41 44
M  V30 36 1 41 45
M  V30 37 1 46 47
M  V30 38 1 47 48
M  V30 39 1 49 50
M  V30 40 1 50 51
M  V30 41 1 52 53
M  V30 42 1 53 54
M  V30 43 1 55 56
M  V30 44 1 56 57
M  V30 45 1 58 59
M  V30 46 1 59 60
M  V30 47 1 61 62
M  V30 48 1 62 63
M  V30 49 1 64 65
M  V30 50 1 65 66
M  V30 51 1 67 68
M  V30 52 1 68 69
M  V30 53 1 70 71
M  V30 54 1 71 72
M  V30 55 1 73 74
M  V30 56 1 74 75
M  V30 57 1 76 77
M  V30 58 1 77 78
M  V30 59 1 79 80
M  V30 60 1 80 81
M  V30 61 1 82 83
M  V30 62 1 83 84
M  V30 63 1 85 86
M  V30 64 1 86 87
M  V30 65 1 88 89
M  V30 66 1 89 90
M  V30 67 1 91 92
M  V30 68 1 92 93
M  V30 69 1 94 95
M  V30 70 1 95 96
M  V30 71 1 97 98
M  V30 72 1 98 99
M  V30 73 1 2 61
M  V30 74 1 3 70
M  V30 75 1 4 52
M  V30 76 1 5 55
M  V30 77 1 7 79
M  V30 78 1 8 54
M  V30 79 1 9 72
M  V30 80 1 10 67
M  V30 81 1 12 82
M  V30 82 1 13 97
M  V30 83 1 14 46
M  V30 84 1 15 88
M  V30 85 1 17 91
M  V30 86 1 18 94
M  V30 87 1 19 49
M  V30 88 1 20 48
M  V30 89 1 22 85
M  V30 90 1 23 76
M  V30 91 1 24 90
M  V30 92 1 25 63
M  V30 93 1 27 81
M  V30 94 1 28 58
M  V30 95 1 29 69
M  V30 96 1 30 78
M  V30 97 1 32 87
M  V30 98 1 33 73
M  V30 99 1 34 84
M  V30 100 1 35 96
M  V30 101 1 37 64
M  V30 102 1 38 99
M  V30 103 1 39 57
M  V30 104 1 40 60
M  V30 105 1 42 51
M  V30 106 1 43 93
M  V30 107 1 44 75
M  V30 108 1 45 66
M  V30 END BOND
M  V30 END CTAB
M  END

$$$$
