
     RDKit          3D

  0  0  0  0  0  0  0  0  0  0999 V3000
M  V30 BEGIN CTAB
M  V30 COUNTS 99 108 0 0 0
M  V30 BEGIN ATOM
M  V30 1 Pd -3.2336 1.2245 -0.4104 0
M  V30 2 Pb -4.0588 0.6614 -0.3674 0
M  V30 3 Pb -2.7298 0.3755 -0.2507 0
M  V30 4 Pb -3.7460 2.0616 -0.6063 0
M  V30 5 Pb -2.3964 1.7709 -0.4889 0
M  V30 6 Pd 1.9248 -0.9479 7.7549 0
M  V30 7 Pb 2.8246 -0.9708 7.3200 0
M  V30 8 Pb 1.7572 -1.8989 7.4937 0
M  V30 9 Pb 1.9713 0.0463 7.8441 0
M  V30 10 Pb 0.9885 -0.9297 8.0982 0
M  V30 11 Pd 1.0090 -3.9750 -3.4307 0
M  V30 12 Pb 0.3316 -3.9496 -4.1620 0
M  V30 13 Pb 1.7092 -4.0467 -2.7187 0
M  V30 14 Pb 1.6680 -3.5200 -4.0331 0
M  V30 15 Pb 0.3141 -4.3864 -2.8327 0
M  V30 16 Pd 3.3201 1.0966 -3.9974 0
M  V30 17 Pb 3.2864 0.2027 -4.4525 0
M  V30 18 Pb 2.4792 1.4083 -4.4817 0
M  V30 19 Pb 4.1769 0.8303 -3.5542 0
M  V30 20 Pb 3.3757 1.9846 -3.5551 0
M  V30 21 Pd 5.7734 -0.2769 1.0369 0
M  V30 22 Pb 5.6971 -0.4630 2.0185 0
M  V30 23 Pb 5.6049 -1.2362 0.8187 0
M  V30 24 Pb 5.9225 -0.1032 0.0622 0
M  V30 25 Pb 5.7914 0.7014 1.2346 0
M  V30 26 Pd -1.9968 3.9487 -4.0971 0
M  V30 27 Pb -1.2454 3.4965 -4.6126 0
M  V30 28 Pb -2.6620 3.3246 -4.5013 0
M  V30 29 Pb -2.7257 4.2950 -3.5086 0
M  V30 30 Pb -1.3351 4.5535 -3.6688 0
M  V30 31 Pd -4.0513 -2.9647 -3.2141 0
M  V30 32 Pb -4.5871 -2.6259 -2.4383 0
M  V30 33 Pb -4.4274 -2.2303 -3.7726 0
M  V30 34 Pb -3.5701 -3.6429 -2.6540 0
M  V30 35 Pb -3.5116 -3.2585 -3.9987 0
M  V30 36 Pd 0.3142 4.0090 2.7853 0
M  V30 37 Pb 1.2888 4.1694 2.6305 0
M  V30 38 Pb -0.6478 3.7676 2.9158 0
M  V30 39 Pb 0.4943 4.0192 3.7708 0
M  V30 40 Pb 0.1708 3.9134 1.8000 0
M  V30 41 Pd -3.1698 -2.1553 3.6809 0
M  V30 42 Pb -2.6093 -2.9311 3.9724 0
M  V30 43 Pb -2.8435 -2.2433 2.7398 0
M  V30 44 Pb -3.5733 -1.2685 3.4643 0
M  V30 45 Pb -3.3711 -1.9994 4.6446 0
M  V30 46 Ag 3.4744 -0.9938 6.9465 0
M  V30 47 Fe 4.5812 -0.7918 4.8535 0
M  V30 48 Ag 5.6862 -0.5906 2.7595 0
M  V30 49 Ag 5.6856 1.4258 1.3893 0
M  V30 50 Fe 3.9576 2.9504 1.9577 0
M  V30 51 Ag 2.0275 4.2159 2.5118 0
M  V30 52 Ag 0.2550 -0.9577 8.2343 0
M  V30 53 Fe -1.7394 -1.3758 7.0260 0
M  V30 54 Ag -3.3705 -1.8542 5.3760 0
M  V30 55 Ag 1.5053 -2.5427 7.2017 0
M  V30 56 Fe -0.2435 -3.2256 5.7457 0
M  V30 57 Ag -2.1073 -3.3954 4.2821 0
M  V30 58 Ag 3.2982 2.6611 -3.2640 0
M  V30 59 Fe 1.4732 4.1417 -3.0943 0
M  V30 60 Ag -0.7464 4.8834 -3.3656 0
M  V30 61 Ag 1.9154 0.7925 7.7966 0
M  V30 62 Fe 1.3242 2.4909 6.2436 0
M  V30 63 Ag 0.6909 3.9701 4.4949 0
M  V30 64 Ag -1.3538 3.5163 2.9544 0
M  V30 65 Fe -2.6960 1.5671 3.1449 0
M  V30 66 Ag -3.7507 -0.5489 3.3613 0
M  V30 67 Ag -3.1667 2.8350 -4.7550 0
M  V30 68 Fe -3.9964 0.6223 -4.5637 0
M  V30 69 Ag -4.6188 -1.6320 -4.1750 0
M  V30 70 Ag 2.2581 -4.1089 -2.2096 0
M  V30 71 Fe 3.8491 -3.0835 -0.7752 0
M  V30 72 Ag 5.3862 -1.9217 0.6130 0
M  V30 73 Ba -4.6267 0.1718 -0.3463 0
M  V30 74 Ga -4.8478 -1.0805 -1.0972 0
M  V30 75 Ba -4.9975 -2.3188 -1.8880 0
M  V30 76 Ba 4.8429 0.6538 -3.2564 0
M  V30 77 Ga 5.4176 0.3288 -1.9361 0
M  V30 78 Ba 6.0881 -0.0052 -0.6641 0
M  V30 79 Ba 1.8888 1.6552 -4.9074 0
M  V30 80 Ga 0.5944 2.4044 -4.8693 0
M  V30 81 Ba -0.7096 3.1235 -5.0150 0
M  V30 82 Ba -0.2373 -4.6746 -2.4051 0
M  V30 83 Ga -1.6940 -4.4222 -2.3135 0
M  V30 84 Ba -3.1449 -4.1282 -2.2654 0
M  V30 85 Ba -0.1885 -3.9547 -4.6985 0
M  V30 86 Ga -1.6381 -3.7109 -4.6770 0
M  V30 87 Ba -3.0819 -3.4528 -4.5774 0
M  V30 88 Ba 2.1432 -3.1700 -4.4995 0
M  V30 89 Ga 2.7085 -1.8094 -4.6276 0
M  V30 90 Ba 3.3007 -0.4655 -4.8008 0
M  V30 91 Ba -4.0710 2.7121 -0.7930 0
M  V30 92 Ga -3.7356 3.6413 -1.8880 0
M  V30 93 Ba -3.2760 4.4571 -3.0271 0
M  V30 94 Ba -1.7943 2.2123 -0.5863 0
M  V30 95 Ga -0.8682 3.0003 0.2526 0
M  V30 96 Ba 0.0739 3.7973 1.0649 0
M  V30 97 Ba -2.4186 -0.2994 -0.1467 0
M  V30 98 Ga -2.4697 -1.2908 0.9451 0
M  V30 99 Ba -2.5391 -2.2615 2.0544 0
M  V30 END ATOM
M  V30 BEGIN BOND
M  V30 1 1 1 2
M  V30 2 1 1 3
M  V30 3 1 1 4
M  V30 4 1 1 5
M  V30 5 1 6 7
M  V30 6 1 6 8
M  V30 7 1 6 9
M  V30 8 1 6 10
M  V30 9 1 11 12
M  V30 10 1 11 13
M  V30 11 1 11 14
M  V30 12 1 11 15
M  V30 13 1 16 17
M  V30 14 1 16 18
M  V30 15 1 16 19
M  V30 16 1 16 20
M  V30 17 1 21 22
M  V30 18 1 21 23
M  V30 19 1 21 24
M  V30 20 1 21 25
M  V30 21 1 26 27
M  V30 22 1 26 28
M  V30 23 1 26 29
M  V30 24 1 26 30
M  V30 25 1 31 32
M  V30 26 1 31 33
M  V30 27 1 31 34
M  V30 28 1 31 35
M  V30 29 1 36 37
M  V30 30 1 36 38
M  V30 31 1 36 39
M  V30 32 1 36 40
M  V30 33 1 41 42
M  V30 34 1 41 43
M  V30 35 1 41 44
M  V30 36 1 41 45
M  V30 37 1 46 47
M  V30 38 1 47 48
M  V30 39 1 49 50
M  V30 40 1 50 51
M  V30 41 1 52 53
M  V30 42 1 53 54
M  V30 43 1 55 56
M  V30 44 1 56 57
M  V30 45 1 58 59
M  V30 46 1 59 60
M  V30 47 1 61 62
M  V30 48 1 62 63
M  V30 49 1 64 65
M  V30 50 1 65 66
M  V30 51 1 67 68
M  V30 52 1 68 69
M  V30 53 1 70 71
M  V30 54 1 71 72
M  V30 55 1 73 74
M  V30 56 1 74 75
M  V30 57 1 76 77
M  V30 58 1 77 78
M  V30 59 1 79 80
M  V30 60 1 80 81
M  V30 61 1 82 83
M  V30 62 1 83 84
M  V30 63 1 85 86
M  V30 64 1 86 87
M  V30 65 1 88 89
M  V30 66 1 89 90
M  V30 67 1 91 92
M  V30 68 1 92 93
M  V30 69 1 94 95
M  V30 70 1 95 96
M  V30 71 1 97 98
M  V30 72 1 98 99
M  V30 73 1 2 73
M  V30 74 1 3 97
M  V30 75 1 4 91
M  V30 76 1 5 94
M  V30 77 1 7 46
M  V30 78 1 8 55
M  V30 79 1 9 61
M  V30 80 1 10 52
M  V30 81 1 12 85
M  V30 82 1 13 70
M  V30 83 1 14 88
M  V30 84 1 15 82
M  V30 85 1 17 90
M  V30 86 1 18 79
M  V30 87 1 19 76
M  V30 88 1 20 58
M  V30 89 1 22 48
M  V30 90 1 23 72
M  V30 91 1 24 78
M  V30 92 1 25 49
M  V30 93 1 27 81
M  V30 94 1 28 67
M  V30 95 1 29 93
M  V30 96 1 30 60
M  V30 97 1 32 75
M  V30 98 1 33 69
M  V30 99 1 34 84
M  V30 100 1 35 87
M  V30 101 1 37 51
M  V30 102 1 38 64
M  V30 103 1 39 63
M  V30 104 1 40 96
M  V30 105 1 42 57
M  V30 106 1 43 99
M  V30 107 1 44 66
M  V30 108 1 45 54
M  V30 END BOND
M  V30 END CTAB
M  END

$$$$
