
     RDKit          3D

  0  0  0  0  0  0  0  0  0  0999 V3000
M  V30 BEGIN CTAB
M  V30 COUNTS 99 108 0 0 0
M  V30 BEGIN ATOM
M  V30 1 Pd -0.7962 1.0049 7.7704 0
M  V30 2 Pb -1.6893 1.1748 7.3604 0
M  V30 3 Pb -1.2420 0.4996 8.5080 0
M  V30 4 Pb 0.0861 0.7167 8.1427 0
M  V30 5 Pb -0.3533 1.4878 7.0090 0
M  V30 6 Pd -0.0323 -3.7117 8.4744 0
M  V30 7 Pb 0.5832 -4.1583 7.8293 0
M  V30 8 Pb 0.6683 -3.0342 8.7057 0
M  V30 9 Pb -0.6638 -3.2246 9.0735 0
M  V30 10 Pb -0.7606 -4.3311 8.1756 0
M  V30 11 Pd 0.7198 5.1413 -2.0965 0
M  V30 12 Pb -0.1822 4.9751 -2.4956 0
M  V30 13 Pb 1.6199 5.2145 -1.6679 0
M  V30 14 Pb 1.0869 5.3323 -3.0044 0
M  V30 15 Pb 0.3208 4.9339 -1.2105 0
M  V30 16 Pd 0.9640 2.0297 -8.8901 0
M  V30 17 Pb 0.7721 1.1458 -9.3099 0
M  V30 18 Pb -0.0020 2.1164 -8.6438 0
M  V30 19 Pb 1.9396 1.8570 -9.0260 0
M  V30 20 Pb 1.1822 2.8834 -8.4215 0
M  V30 21 Pd -3.2551 -0.3259 1.2862 0
M  V30 22 Pb -2.6347 -0.5265 0.5250 0
M  V30 23 Pb -3.5861 -1.2702 1.3211 0
M  V30 24 Pb -2.8822 0.5960 1.3236 0
M  V30 25 Pb -3.7877 -0.0872 2.0937 0
M  V30 26 Pd -1.2390 -4.6699 3.6615 0
M  V30 27 Pb -0.3777 -4.8612 4.1317 0
M  V30 28 Pb -0.7287 -4.2626 2.9078 0
M  V30 29 Pb -1.7252 -5.0399 4.4548 0
M  V30 30 Pb -2.0947 -4.4853 3.1728 0
M  V30 31 Pd -1.6876 0.7324 -4.3081 0
M  V30 32 Pb -1.4842 0.3936 -3.3854 0
M  V30 33 Pb -1.4342 -0.1902 -4.6066 0
M  V30 34 Pb -1.9324 1.6544 -3.9972 0
M  V30 35 Pb -1.8954 1.0435 -5.2414 0
M  V30 36 Pd 2.7419 1.4376 0.6664 0
M  V30 37 Pb 3.1868 1.0897 -0.1607 0
M  V30 38 Pb 3.1302 2.3466 0.5023 0
M  V30 39 Pb 2.3191 1.7743 1.5141 0
M  V30 40 Pb 2.3357 0.5300 0.7659 0
M  V30 41 Pd 2.5811 -1.5816 -6.5854 0
M  V30 42 Pb 3.2697 -1.0829 -7.1120 0
M  V30 43 Pb 2.1065 -1.7808 -7.4404 0
M  V30 44 Pb 1.8103 -1.9896 -6.0989 0
M  V30 45 Pb 3.0462 -1.3336 -5.7338 0
M  V30 46 Ag 1.3094 5.4450 -3.7092 0
M  V30 47 Fe 1.3796 4.5419 -5.9017 0
M  V30 48 Ag 1.3670 3.4932 -8.0297 0
M  V30 49 Ag 3.5256 0.7916 -0.7618 0
M  V30 50 Fe 3.4442 -0.1581 -2.9392 0
M  V30 51 Ag 3.4125 -1.1134 -5.1154 0
M  V30 52 Ag -0.0421 1.8573 6.4294 0
M  V30 53 Fe 0.9926 1.9067 4.2861 0
M  V30 54 Ag 2.0315 2.0629 2.1500 0
M  V30 55 Ag -0.3321 -3.9367 2.3646 0
M  V30 56 Fe 0.8503 -2.0288 1.5932 0
M  V30 57 Ag 2.0507 -0.1632 0.7498 0
M  V30 58 Ag -0.0251 4.7396 -0.5816 0
M  V30 59 Fe -1.3063 3.0428 0.4614 0
M  V30 60 Ag -2.5792 1.2740 1.3890 0
M  V30 61 Ag -2.3460 1.2117 7.0058 0
M  V30 62 Fe -3.3876 0.7348 4.9305 0
M  V30 63 Ag -4.0765 0.1536 2.7381 0
M  V30 64 Ba -1.3033 -4.7705 7.8972 0
M  V30 65 Ga -1.7066 -5.0631 6.5061 0
M  V30 66 Ba -2.0401 -5.2989 5.0862 0
M  V30 67 Ba -1.5551 0.0782 9.0420 0
M  V30 68 Ga -1.3876 -1.3562 9.3253 0
M  V30 69 Ba -1.1173 -2.7941 9.4829 0
M  V30 70 Ba -1.2282 -0.9010 -4.7444 0
M  V30 71 Ga -0.0287 -1.5840 -5.2691 0
M  V30 72 Ba 1.1763 -2.2533 -5.7990 0
M  V30 73 Ba 2.6599 1.6500 -9.0522 0
M  V30 74 Ga 3.2789 0.5184 -8.3368 0
M  V30 75 Ba 3.7043 -0.6508 -7.5445 0
M  V30 76 Ba 0.7116 0.4087 8.4200 0
M  V30 77 Ga 0.9994 -1.0192 8.6626 0
M  V30 78 Ba 1.1502 -2.4760 8.8526 0
M  V30 79 Ba -3.8219 -1.9800 1.3921 0
M  V30 80 Ga -3.2786 -3.1687 2.0822 0
M  V30 81 Ba -2.7206 -4.3471 2.7781 0
M  V30 82 Ba 1.0001 -4.4816 7.3002 0
M  V30 83 Ga 0.6767 -4.7639 5.8918 0
M  V30 84 Ba 0.2594 -5.0039 4.5002 0
M  V30 85 Ba -0.8667 4.8063 -2.7533 0
M  V30 86 Ga -1.4906 3.5778 -3.2882 0
M  V30 87 Ba -2.1338 2.3595 -3.8236 0
M  V30 88 Ba -2.1010 -0.6428 0.0075 0
M  V30 89 Ga -1.7609 -0.2603 -1.3803 0
M  V30 90 Ba -1.2878 0.0394 -2.7493 0
M  V30 91 Ba 0.6784 0.4476 -9.5571 0
M  V30 92 Ga 1.1649 -0.7737 -8.9011 0
M  V30 93 Ba 1.7351 -1.8541 -8.0847 0
M  V30 94 Ba -0.7194 2.1266 -8.4211 0
M  V30 95 Ga -1.3943 1.7194 -7.1687 0
M  V30 96 Ba -2.0808 1.3141 -5.9220 0
M  V30 97 Ba 2.2756 5.2035 -1.3044 0
M  V30 98 Ga 2.8784 4.1445 -0.4708 0
M  V30 99 Ba 3.4015 3.0301 0.3446 0
M  V30 END ATOM
M  V30 BEGIN BOND
M  V30 1 1 1 2
M  V30 2 1 1 3
M  V30 3 1 1 4
M  V30 4 1 1 5
M  V30 5 1 6 7
M  V30 6 1 6 8
M  V30 7 1 6 9
M  V30 8 1 6 10
M  V30 9 1 11 12
M  V30 10 1 11 13
M  V30 11 1 11 14
M  V30 12 1 11 15
M  V30 13 1 16 17
M  V30 14 1 16 18
M  V30 15 1 16 19
M  V30 16 1 16 20
M  V30 17 1 21 22
M  V30 18 1 21 23
M  V30 19 1 21 24
M  V30 20 1 21 25
M  V30 21 1 26 27
M  V30 22 1 26 28
M  V30 23 1 26 29
M  V30 24 1 26 30
M  V30 25 1 31 32
M  V30 26 1 31 33
M  V30 27 1 31 34
M  V30 28 1 31 35
M  V30 29 1 36 37
M  V30 30 1 36 38
M  V30 31 1 36 39
M  V30 32 1 36 40
M  V30 33 1 41 42
M  V30 34 1 41 43
M  V30 35 1 41 44
M  V30 36 1 41 45
M  V30 37 1 46 47
M  V30 38 1 47 48
M  V30 39 1 49 50
M  V30 40 1 50 51
M  V30 41 1 52 53
M  V30 42 1 53 54
M  V30 43 1 55 56
M  V30 44 1 56 57
M  V30 45 1 58 59
M  V30 46 1 59 60
M  V30 47 1 61 62
M  V30 48 1 62 63
M  V30 49 1 64 65
M  V30 50 1 65 66
M  V30 51 1 67 68
M  V30 52 1 68 69
M  V30 53 1 70 71
M  V30 54 1 71 72
M  V30 55 1 73 74
M  V30 56 1 74 75
M  V30 57 1 76 77
M  V30 58 1 77 78
M  V30 59 1 79 80
M  V30 60 1 80 81
M  V30 61 1 82 83
M  V30 62 1 83 84
M  V30 63 1 85 86
M  V30 64 1 86 87
M  V30 65 1 88 89
M  V30 66 1 89 90
M  V30 67 1 91 92
M  V30 68 1 92 93
M  V30 69 1 94 95
M  V30 70 1 95 96
M  V30 71 1 97 98
M  V30 72 1 98 99
M  V30 73 1 2 61
M  V30 74 1 3 67
M  V30 75 1 4 76
M  V30 76 1 5 52
M  V30 77 1 7 82
M  V30 78 1 8 78
M  V30 79 1 9 69
M  V30 80 1 10 64
M  V30 81 1 12 85
M  V30 82 1 13 97
M  V30 83 1 14 46
M  V30 84 1 15 58
M  V30 85 1 17 91
M  V30 86 1 18 94
M  V30 87 1 19 73
M  V30 88 1 20 48
M  V30 89 1 22 88
M  V30 90 1 23 79
M  V30 91 1 24 60
M  V30 92 1 25 63
M  V30 93 1 27 84
M  V30 94 1 28 55
M  V30 95 1 29 66
M  V30 96 1 30 81
M  V30 97 1 32 90
M  V30 98 1 33 70
M  V30 99 1 34 87
M  V30 100 1 35 96
M  V30 101 1 37 49
M  V30 102 1 38 99
M  V30 103 1 39 54
M  V30 104 1 40 57
M  V30 105 1 42 75
M  V30 106 1 43 93
M  V30 107 1 44 72
M  V30 108 1 45 51
M  V30 END BOND
M  V30 END CTAB
M  END

$$$$
