
     RDKit          3D

  0  0  0  0  0  0  0  0  0  0999 V3000
M  V30 BEGIN CTAB
M  V30 COUNTS 99 108 0 0 0
M  V30 BEGIN ATOM
M  V30 1 Pd 6.1334 -0.7665 -0.9236 0
M  V30 2 Pb 6.2971 -0.1277 -0.1736 0
M  V30 3 Pb 5.9601 -1.3916 -1.6726 0
M  V30 4 Pb 5.5893 -1.3434 -0.2848 0
M  V30 5 Pb 6.5992 -0.1737 -1.5774 0
M  V30 6 Pd -3.2540 -4.7642 -2.6367 0
M  V30 7 Pb -4.1035 -4.2798 -2.8276 0
M  V30 8 Pb -3.6269 -5.0479 -1.7590 0
M  V30 9 Pb -2.4535 -5.3009 -2.3720 0
M  V30 10 Pb -2.8509 -4.4158 -3.4871 0
M  V30 11 Pd -1.4710 3.3922 4.7650 0
M  V30 12 Pb -1.5588 4.3347 4.4668 0
M  V30 13 Pb -1.3916 2.4539 5.1213 0
M  V30 14 Pb -0.4867 3.5609 4.9681 0
M  V30 15 Pb -2.4286 3.2975 4.4972 0
M  V30 16 Pd 3.6824 5.4921 2.7231 0
M  V30 17 Pb 3.0410 6.2485 2.6825 0
M  V30 18 Pb 4.3357 4.7374 2.7437 0
M  V30 19 Pb 3.1940 5.1172 3.5343 0
M  V30 20 Pb 4.0768 5.7851 1.8538 0
M  V30 21 Pd -1.0007 0.0800 -4.6140 0
M  V30 22 Pb -0.6916 1.0062 -4.4009 0
M  V30 23 Pb -1.9330 0.4043 -4.4342 0
M  V30 24 Pb -0.0525 -0.1801 -4.8134 0
M  V30 25 Pb -1.3014 -0.8498 -4.8584 0
M  V30 26 Pd -7.0136 0.9717 -0.0273 0
M  V30 27 Pb -6.6594 1.4029 -0.8560 0
M  V30 28 Pb -7.2230 0.4801 0.8136 0
M  V30 29 Pb -7.2317 0.1975 -0.6140 0
M  V30 30 Pb -6.7370 1.7074 0.5862 0
M  V30 31 Pd 1.4803 -4.4821 0.4311 0
M  V30 32 Pb 1.1614 -4.4134 1.3841 0
M  V30 33 Pb 1.8270 -4.5807 -0.4916 0
M  V30 34 Pb 2.2711 -3.8898 0.6778 0
M  V30 35 Pb 0.7714 -5.1217 0.1357 0
M  V30 36 Pd 3.7905 2.5557 -4.0106 0
M  V30 37 Pb 4.0727 3.4009 -3.5566 0
M  V30 38 Pb 4.7481 2.2659 -4.0037 0
M  V30 39 Pb 3.4984 1.6859 -4.4167 0
M  V30 40 Pb 2.8379 2.8548 -3.9869 0
M  V30 41 Pd -2.3915 -2.4371 4.3002 0
M  V30 42 Pb -1.9990 -1.6829 4.8359 0
M  V30 43 Pb -2.8009 -3.1794 3.7765 0
M  V30 44 Pb -1.4946 -2.8795 4.2078 0
M  V30 45 Pb -3.3121 -2.0545 4.3664 0
M  V30 46 Ag -4.7626 -3.9351 -2.8903 0
M  V30 47 Fe -6.1308 -2.1831 -2.0686 0
M  V30 48 Ag -7.3014 -0.3661 -1.0970 0
M  V30 49 Ag 5.7262 -1.8853 -2.1675 0
M  V30 50 Fe 3.9745 -3.4519 -2.1023 0
M  V30 51 Ag 2.1604 -4.6050 -1.1494 0
M  V30 52 Ag -2.5928 0.7421 -4.2969 0
M  V30 53 Fe -4.4812 1.2035 -2.9277 0
M  V30 54 Ag -6.3439 1.6048 -1.5058 0
M  V30 55 Ag -7.2330 0.1581 1.4872 0
M  V30 56 Fe -5.7427 -0.8643 3.0243 0
M  V30 57 Ag -4.0297 -1.8394 4.3452 0
M  V30 58 Ag -3.1268 3.3557 4.2297 0
M  V30 59 Fe -4.8352 2.7715 2.6883 0
M  V30 60 Ag -6.5305 2.1643 1.1412 0
M  V30 61 Ag -3.8319 -5.2189 -1.0637 0
M  V30 62 Fe -3.5539 -4.5517 1.1926 0
M  V30 63 Ag -3.1346 -3.7059 3.3659 0
M  V30 64 Ag 6.3889 0.3409 0.4031 0
M  V30 65 Fe 5.6420 2.2558 1.5897 0
M  V30 66 Ag 4.8350 4.1803 2.7201 0
M  V30 67 Ag 4.3164 5.9337 1.1605 0
M  V30 68 Fe 4.3623 5.0655 -1.0485 0
M  V30 69 Ag 4.2902 4.0069 -3.1723 0
M  V30 70 Ag -1.5179 5.0345 4.2324 0
M  V30 71 Fe 0.2463 6.3355 3.3791 0
M  V30 72 Ag 2.4650 6.7102 2.6950 0
M  V30 73 Ba 5.1943 -1.7294 0.2483 0
M  V30 74 Ga 4.0094 -2.6119 0.4813 0
M  V30 75 Ba 2.8812 -3.4910 0.9185 0
M  V30 76 Ba 6.8864 0.2606 -2.1144 0
M  V30 77 Ga 6.2178 1.1779 -3.0546 0
M  V30 78 Ba 5.4722 2.0742 -3.9565 0
M  V30 79 Ba -0.4717 1.7074 -4.2542 0
M  V30 80 Ga 0.8253 2.3910 -4.1051 0
M  V30 81 Ba 2.1227 3.0738 -3.9561 0
M  V30 82 Ba -1.2826 1.7831 5.4540 0
M  V30 83 Ga -1.5287 0.3310 5.2910 0
M  V30 84 Ba -1.7000 -1.1409 5.2676 0
M  V30 85 Ba 0.2467 3.7060 5.1471 0
M  V30 86 Ga 1.5110 4.2721 4.5779 0
M  V30 87 Ba 2.8393 4.8103 4.1429 0
M  V30 88 Ba 0.6627 -0.3503 -4.9780 0
M  V30 89 Ga 1.9641 0.3398 -4.8366 0
M  V30 90 Ba 3.2678 1.0258 -4.6974 0
M  V30 91 Ba -1.9462 -5.7606 -2.0636 0
M  V30 92 Ga -0.8062 -5.6636 -1.1301 0
M  V30 93 Ba 0.3393 -5.6366 -0.1986 0
M  V30 94 Ba -2.5748 -4.1276 -4.1265 0
M  V30 95 Ga -2.0307 -2.8216 -4.5688 0
M  V30 96 Ba -1.4777 -1.5490 -5.0896 0
M  V30 97 Ba 1.0168 -4.3564 2.1252 0
M  V30 98 Ga 0.0480 -3.7825 3.0892 0
M  V30 99 Ba -0.8449 -3.2587 4.1504 0
M  V30 END ATOM
M  V30 BEGIN BOND
M  V30 1 1 1 2
M  V30 2 1 1 3
M  V30 3 1 1 4
M  V30 4 1 1 5
M  V30 5 1 6 7
M  V30 6 1 6 8
M  V30 7 1 6 9
M  V30 8 1 6 10
M  V30 9 1 11 12
M  V30 10 1 11 13
M  V30 11 1 11 14
M  V30 12 1 11 15
M  V30 13 1 16 17
M  V30 14 1 16 18
M  V30 15 1 16 19
M  V30 16 1 16 20
M  V30 17 1 21 22
M  V30 18 1 21 23
M  V30 19 1 21 24
M  V30 20 1 21 25
M  V30 21 1 26 27
M  V30 22 1 26 28
M  V30 23 1 26 29
M  V30 24 1 26 30
M  V30 25 1 31 32
M  V30 26 1 31 33
M  V30 27 1 31 34
M  V30 28 1 31 35
M  V30 29 1 36 37
M  V30 30 1 36 38
M  V30 31 1 36 39
M  V30 32 1 36 40
M  V30 33 1 41 42
M  V30 34 1 41 43
M  V30 35 1 41 44
M  V30 36 1 41 45
M  V30 37 1 46 47
M  V30 38 1 47 48
M  V30 39 1 49 50
M  V30 40 1 50 51
M  V30 41 1 52 53
M  V30 42 1 53 54
M  V30 43 1 55 56
M  V30 44 1 56 57
M  V30 45 1 58 59
M  V30 46 1 59 60
M  V30 47 1 61 62
M  V30 48 1 62 63
M  V30 49 1 64 65
M  V30 50 1 65 66
M  V30 51 1 67 68
M  V30 52 1 68 69
M  V30 53 1 70 71
M  V30 54 1 71 72
M  V30 55 1 73 74
M  V30 56 1 74 75
M  V30 57 1 76 77
M  V30 58 1 77 78
M  V30 59 1 79 80
M  V30 60 1 80 81
M  V30 61 1 82 83
M  V30 62 1 83 84
M  V30 63 1 85 86
M  V30 64 1 86 87
M  V30 65 1 88 89
M  V30 66 1 89 90
M  V30 67 1 91 92
M  V30 68 1 92 93
M  V30 69 1 94 95
M  V30 70 1 95 96
M  V30 71 1 97 98
M  V30 72 1 98 99
M  V30 73 1 2 64
M  V30 74 1 3 49
M  V30 75 1 4 73
M  V30 76 1 5 76
M  V30 77 1 7 46
M  V30 78 1 8 61
M  V30 79 1 9 91
M  V30 80 1 10 94
M  V30 81 1 12 70
M  V30 82 1 13 82
M  V30 83 1 14 85
M  V30 84 1 15 58
M  V30 85 1 17 72
M  V30 86 1 18 66
M  V30 87 1 19 87
M  V30 88 1 20 67
M  V30 89 1 22 79
M  V30 90 1 23 52
M  V30 91 1 24 88
M  V30 92 1 25 96
M  V30 93 1 27 54
M  V30 94 1 28 55
M  V30 95 1 29 48
M  V30 96 1 30 60
M  V30 97 1 32 97
M  V30 98 1 33 51
M  V30 99 1 34 75
M  V30 100 1 35 93
M  V30 101 1 37 69
M  V30 102 1 38 78
M  V30 103 1 39 90
M  V30 104 1 40 81
M  V30 105 1 42 84
M  V30 106 1 43 63
M  V30 107 1 44 99
M  V30 108 1 45 57
M  V30 END BOND
M  V30 END CTAB
M  END

$$$$
