
     RDKit          3D

  0  0  0  0  0  0  0  0  0  0999 V3000
M  V30 BEGIN CTAB
M  V30 COUNTS 99 108 0 0 0
M  V30 BEGIN ATOM
M  V30 1 Pd -2.4585 0.2444 2.9896 0
M  V30 2 Pb -2.1999 1.1228 3.3879 0
M  V30 3 Pb -1.6721 -0.1576 3.4634 0
M  V30 4 Pb -3.2491 0.7052 2.5851 0
M  V30 5 Pb -2.7069 -0.5888 2.4847 0
M  V30 6 Pd 3.1299 -6.9777 3.7414 0
M  V30 7 Pb 3.4525 -6.4134 2.9833 0
M  V30 8 Pb 2.8029 -7.5095 4.5245 0
M  V30 9 Pb 2.4348 -7.3786 3.1409 0
M  V30 10 Pb 3.7938 -6.5445 4.3540 0
M  V30 11 Pd 2.9104 4.5501 -3.5821 0
M  V30 12 Pb 3.0089 4.5846 -2.5893 0
M  V30 13 Pb 3.3858 3.6703 -3.5934 0
M  V30 14 Pb 2.8352 4.5088 -4.5806 0
M  V30 15 Pb 2.4023 5.4149 -3.5444 0
M  V30 16 Pd -0.8154 2.8915 -6.9882 0
M  V30 17 Pb 0.1157 3.2001 -7.1771 0
M  V30 18 Pb -1.1032 3.8373 -6.8425 0
M  V30 19 Pb -0.5495 1.9302 -7.0494 0
M  V30 20 Pb -1.7368 2.6189 -6.7192 0
M  V30 21 Pd 1.9868 -2.9861 -2.9530 0
M  V30 22 Pb 2.4910 -3.3149 -2.1551 0
M  V30 23 Pb 2.6668 -2.2635 -3.0777 0
M  V30 24 Pb 1.5379 -2.6714 -3.7899 0
M  V30 25 Pb 1.2803 -3.6850 -2.8228 0
M  V30 26 Pd -4.8507 5.5791 -1.8501 0
M  V30 27 Pb -4.4372 6.0637 -2.6194 0
M  V30 28 Pb -4.5777 6.3160 -1.2323 0
M  V30 29 Pb -5.1879 5.0157 -1.0972 0
M  V30 30 Pb -5.0490 4.8351 -2.4852 0
M  V30 31 Pd -0.0940 6.6611 0.2544 0
M  V30 32 Pb -0.3247 6.2664 1.1434 0
M  V30 33 Pb -0.9749 7.1384 0.2494 0
M  V30 34 Pb 0.1407 7.0081 -0.6574 0
M  V30 35 Pb 0.7769 6.1739 0.2750 0
M  V30 36 Pd -1.4296 -5.2161 1.0483 0
M  V30 37 Pb -1.2023 -5.2333 0.0710 0
M  V30 38 Pb -1.6902 -5.2225 2.0108 0
M  V30 39 Pb -0.8797 -6.0463 1.1778 0
M  V30 40 Pb -2.0056 -4.4037 0.9411 0
M  V30 41 Pd 1.6064 -4.7132 7.4448 0
M  V30 42 Pb 1.6464 -5.6977 7.6006 0
M  V30 43 Pb 1.5594 -3.7722 7.1130 0
M  V30 44 Pb 0.6222 -4.7769 7.3246 0
M  V30 45 Pb 2.6023 -4.7004 7.3971 0
M  V30 46 Ag 3.6906 -5.9734 2.4263 0
M  V30 47 Fe 3.2684 -4.7756 0.4206 0
M  V30 48 Ag 2.9139 -3.5558 -1.5850 0
M  V30 49 Ag -1.9981 1.8102 3.6045 0
M  V30 50 Fe -1.2448 3.9137 2.8029 0
M  V30 51 Ag -0.5000 5.9262 1.7879 0
M  V30 52 Ag -0.3838 1.1993 -7.0366 0
M  V30 53 Fe 0.4291 -0.6348 -5.7654 0
M  V30 54 Ag 1.2507 -2.4248 -4.4380 0
M  V30 55 Ag -1.3710 4.5107 -6.6528 0
M  V30 56 Fe -2.7099 5.5861 -5.0145 0
M  V30 57 Ag -4.0819 6.3251 -3.2244 0
M  V30 58 Ag -2.4194 2.4903 -6.4430 0
M  V30 59 Fe -3.9020 3.2694 -4.7638 0
M  V30 60 Ag -5.1092 4.2948 -2.9985 0
M  V30 61 Ag -3.8325 1.0991 2.3242 0
M  V30 62 Fe -4.6642 2.8069 0.8985 0
M  V30 63 Ag -5.3930 4.5279 -0.5669 0
M  V30 64 Ag -1.8839 -5.2101 2.7323 0
M  V30 65 Fe -1.1509 -5.0372 4.9782 0
M  V30 66 Ag -0.0758 -4.8437 7.0794 0
M  V30 67 Ag -1.0781 -0.3452 3.8865 0
M  V30 68 Fe 0.1963 -1.7380 5.3305 0
M  V30 69 Ag 1.5000 -3.1085 6.7698 0
M  V30 70 Ag 3.7179 2.9976 -3.5892 0
M  V30 71 Fe 3.4829 0.6427 -3.3893 0
M  V30 72 Ag 3.1512 -1.6997 -3.1781 0
M  V30 73 Ba 0.7356 -4.1984 -2.7484 0
M  V30 74 Ga -0.1383 -4.7205 -1.6757 0
M  V30 75 Ba -1.0499 -5.2970 -0.6642 0
M  V30 76 Ba 2.0112 6.0566 -3.4850 0
M  V30 77 Ga 1.1717 6.6570 -2.4237 0
M  V30 78 Ba 0.3366 7.2375 -1.3480 0
M  V30 79 Ba 4.2435 -6.2051 4.8514 0
M  V30 80 Ga 3.8869 -5.4609 6.0729 0
M  V30 81 Ba 3.3312 -4.7592 7.2436 0
M  V30 82 Ba 2.5753 -7.8479 5.1554 0
M  V30 83 Ga 2.1191 -7.2379 6.4176 0
M  V30 84 Ba 1.6904 -6.4437 7.5828 0
M  V30 85 Ba 3.0815 4.6187 -1.8453 0
M  V30 86 Ga 2.2657 5.2050 -0.7691 0
M  V30 87 Ba 1.4262 5.8024 0.2827 0
M  V30 88 Ba 2.8039 4.4518 -5.3301 0
M  V30 89 Ga 1.8158 3.9626 -6.3115 0
M  V30 90 Ba 0.8088 3.4684 -7.2710 0
M  V30 91 Ba 1.9118 -7.6678 2.6841 0
M  V30 92 Ga 0.7146 -7.1547 1.9826 0
M  V30 93 Ba -0.4897 -6.6863 1.2624 0
M  V30 94 Ba -2.9553 -1.1328 2.0227 0
M  V30 95 Ga -2.6540 -2.4834 1.4989 0
M  V30 96 Ba -2.4791 -3.8219 0.8923 0
M  V30 97 Ba -4.3258 6.8724 -0.7976 0
M  V30 98 Ga -2.9904 7.1884 -0.2534 0
M  V30 99 Ba -1.6441 7.4802 0.2773 0
M  V30 END ATOM
M  V30 BEGIN BOND
M  V30 1 1 1 2
M  V30 2 1 1 3
M  V30 3 1 1 4
M  V30 4 1 1 5
M  V30 5 1 6 7
M  V30 6 1 6 8
M  V30 7 1 6 9
M  V30 8 1 6 10
M  V30 9 1 11 12
M  V30 10 1 11 13
M  V30 11 1 11 14
M  V30 12 1 11 15
M  V30 13 1 16 17
M  V30 14 1 16 18
M  V30 15 1 16 19
M  V30 16 1 16 20
M  V30 17 1 21 22
M  V30 18 1 21 23
M  V30 19 1 21 24
M  V30 20 1 21 25
M  V30 21 1 26 27
M  V30 22 1 26 28
M  V30 23 1 26 29
M  V30 24 1 26 30
M  V30 25 1 31 32
M  V30 26 1 31 33
M  V30 27 1 31 34
M  V30 28 1 31 35
M  V30 29 1 36 37
M  V30 30 1 36 38
M  V30 31 1 36 39
M  V30 32 1 36 40
M  V30 33 1 41 42
M  V30 34 1 41 43
M  V30 35 1 41 44
M  V30 36 1 41 45
M  V30 37 1 46 47
M  V30 38 1 47 48
M  V30 39 1 49 50
M  V30 40 1 50 51
M  V30 41 1 52 53
M  V30 42 1 53 54
M  V30 43 1 55 56
M  V30 44 1 56 57
M  V30 45 1 58 59
M  V30 46 1 59 60
M  V30 47 1 61 62
M  V30 48 1 62 63
M  V30 49 1 64 65
M  V30 50 1 65 66
M  V30 51 1 67 68
M  V30 52 1 68 69
M  V30 53 1 70 71
M  V30 54 1 71 72
M  V30 55 1 73 74
M  V30 56 1 74 75
M  V30 57 1 76 77
M  V30 58 1 77 78
M  V30 59 1 79 80
M  V30 60 1 80 81
M  V30 61 1 82 83
M  V30 62 1 83 84
M  V30 63 1 85 86
M  V30 64 1 86 87
M  V30 65 1 88 89
M  V30 66 1 89 90
M  V30 67 1 91 92
M  V30 68 1 92 93
M  V30 69 1 94 95
M  V30 70 1 95 96
M  V30 71 1 97 98
M  V30 72 1 98 99
M  V30 73 1 2 49
M  V30 74 1 3 67
M  V30 75 1 4 61
M  V30 76 1 5 94
M  V30 77 1 7 46
M  V30 78 1 8 82
M  V30 79 1 9 91
M  V30 80 1 10 79
M  V30 81 1 12 85
M  V30 82 1 13 70
M  V30 83 1 14 88
M  V30 84 1 15 76
M  V30 85 1 17 90
M  V30 86 1 18 55
M  V30 87 1 19 52
M  V30 88 1 20 58
M  V30 89 1 22 48
M  V30 90 1 23 72
M  V30 91 1 24 54
M  V30 92 1 25 73
M  V30 93 1 27 57
M  V30 94 1 28 97
M  V30 95 1 29 63
M  V30 96 1 30 60
M  V30 97 1 32 51
M  V30 98 1 33 99
M  V30 99 1 34 78
M  V30 100 1 35 87
M  V30 101 1 37 75
M  V30 102 1 38 64
M  V30 103 1 39 93
M  V30 104 1 40 96
M  V30 105 1 42 84
M  V30 106 1 43 69
M  V30 107 1 44 66
M  V30 108 1 45 81
M  V30 END BOND
M  V30 END CTAB
M  END

$$$$
