
     RDKit          3D

  0  0  0  0  0  0  0  0  0  0999 V3000
M  V30 BEGIN CTAB
M  V30 COUNTS 99 108 0 0 0
M  V30 BEGIN ATOM
M  V30 1 Pd -4.6845 3.0790 -1.4456 0
M  V30 2 Pb -5.1026 3.0498 -0.5342 0
M  V30 3 Pb -4.0392 3.7917 -1.1677 0
M  V30 4 Pb -5.3785 2.4402 -1.7405 0
M  V30 5 Pb -4.2226 2.8239 -2.2920 0
M  V30 6 Pd -6.7774 -2.9594 1.3349 0
M  V30 7 Pb -6.7502 -3.7678 0.7475 0
M  V30 8 Pb -6.7502 -2.0581 1.7822 0
M  V30 9 Pb -7.1137 -2.5015 0.5263 0
M  V30 10 Pb -6.4769 -3.4211 2.1739 0
M  V30 11 Pd 2.6016 -2.5145 2.3212 0
M  V30 12 Pb 2.9657 -1.6683 1.9300 0
M  V30 13 Pb 2.2313 -2.7357 1.4171 0
M  V30 14 Pb 2.9782 -2.2841 3.2185 0
M  V30 15 Pb 2.2337 -3.3499 2.7302 0
M  V30 16 Pd 5.1333 3.4388 -6.0340 0
M  V30 17 Pb 4.5789 2.6252 -6.2178 0
M  V30 18 Pb 4.3602 3.9005 -5.5988 0
M  V30 19 Pb 5.8985 2.9934 -6.4896 0
M  V30 20 Pb 5.7867 4.0452 -5.5774 0
M  V30 21 Pd -3.3148 -3.8449 -2.4402 0
M  V30 22 Pb -3.4277 -2.9750 -2.9376 0
M  V30 23 Pb -4.2884 -4.0749 -2.3553 0
M  V30 24 Pb -2.3298 -3.6769 -2.4160 0
M  V30 25 Pb -3.1682 -4.6776 -1.9142 0
M  V30 26 Pd -2.2289 -4.6549 4.3968 0
M  V30 27 Pb -1.2412 -4.8086 4.3336 0
M  V30 28 Pb -3.2250 -4.5531 4.4435 0
M  V30 29 Pb -2.1012 -3.8428 4.9680 0
M  V30 30 Pb -2.3490 -5.3968 3.7449 0
M  V30 31 Pd 6.6103 0.9545 -3.3095 0
M  V30 32 Pb 5.9243 0.3617 -3.7352 0
M  V30 33 Pb 7.1315 1.7821 -3.0941 0
M  V30 34 Pb 7.1842 0.8297 -4.1138 0
M  V30 35 Pb 6.0524 1.0563 -2.4852 0
M  V30 36 Pd 0.7061 4.9220 0.1552 0
M  V30 37 Pb -0.2656 5.1127 0.0165 0
M  V30 38 Pb 0.5447 4.7115 1.1409 0
M  V30 39 Pb 1.6826 4.8149 0.2905 0
M  V30 40 Pb 0.8781 5.1007 -0.8127 0
M  V30 41 Pd 1.9097 1.6559 5.0725 0
M  V30 42 Pb 1.3768 2.4145 4.6493 0
M  V30 43 Pb 2.4404 0.8792 5.4015 0
M  V30 44 Pb 2.7489 2.0470 4.7170 0
M  V30 45 Pb 1.0839 1.2123 5.4235 0
M  V30 46 Ag -5.3990 2.8374 0.1272 0
M  V30 47 Fe -6.1031 0.8353 1.2125 0
M  V30 48 Ag -6.7139 -1.3321 1.9950 0
M  V30 49 Ag 3.2252 -1.0352 1.6209 0
M  V30 50 Fe 4.4337 0.0531 -0.1109 0
M  V30 51 Ag 5.6482 1.1144 -1.8554 0
M  V30 52 Ag -2.0086 -3.1977 5.3419 0
M  V30 53 Fe -0.7877 -1.1708 5.5619 0
M  V30 54 Ag 0.5020 0.8210 5.6925 0
M  V30 55 Ag 2.3817 4.7098 0.5039 0
M  V30 56 Fe 3.3341 3.6150 2.3550 0
M  V30 57 Ag 3.3042 2.3553 4.3410 0
M  V30 58 Ag 1.9752 -2.8561 0.7206 0
M  V30 59 Fe 0.2054 -3.2198 -0.8224 0
M  V30 60 Ag -1.5902 -3.5847 -2.3350 0
M  V30 61 Ag 3.7778 4.2571 -5.2882 0
M  V30 62 Fe 2.3976 4.7418 -3.4178 0
M  V30 63 Ag 1.0267 5.2162 -1.5378 0
M  V30 64 Ag -3.9690 2.4013 -2.8584 0
M  V30 65 Fe -3.6385 0.0682 -3.2074 0
M  V30 66 Ag -3.4074 -2.3019 -3.2879 0
M  V30 67 Ag -5.8883 1.9397 -1.9231 0
M  V30 68 Fe -6.7773 -0.1142 -1.1847 0
M  V30 69 Ag -7.3201 -2.1167 -0.0674 0
M  V30 70 Ag -3.0789 -5.2580 -1.4554 0
M  V30 71 Fe -2.7507 -5.7826 0.8297 0
M  V30 72 Ag -2.4254 -5.8664 3.1730 0
M  V30 73 Ba -6.3008 -3.7303 2.8383 0
M  V30 74 Ga -5.1080 -4.1141 3.6240 0
M  V30 75 Ba -3.9760 -4.5273 4.4814 0
M  V30 76 Ba -6.7531 -4.2455 0.1662 0
M  V30 77 Ga -5.8698 -4.3351 -1.0212 0
M  V30 78 Ba -4.9589 -4.3832 -2.1900 0
M  V30 79 Ba 0.3908 4.5897 1.8855 0
M  V30 80 Ga 0.7389 3.7403 3.0695 0
M  V30 81 Ba 0.9659 2.9889 4.3456 0
M  V30 82 Ba 6.4835 2.6095 -6.7411 0
M  V30 83 Ga 7.1630 1.6452 -5.8830 0
M  V30 84 Ba 7.5557 0.8042 -4.7576 0
M  V30 85 Ba 3.2422 -2.1129 3.8993 0
M  V30 86 Ga 3.0701 -0.9424 4.7758 0
M  V30 87 Ba 2.8373 0.2714 5.5757 0
M  V30 88 Ba -3.6365 4.3827 -0.9388 0
M  V30 89 Ga -2.2762 4.7781 -0.5264 0
M  V30 90 Ba -0.9764 5.3251 -0.0922 0
M  V30 91 Ba 1.9881 -3.9631 3.0865 0
M  V30 92 Ga 0.7171 -4.4465 3.6618 0
M  V30 93 Ba -0.5163 -4.9940 4.2609 0
M  V30 94 Ba 6.3135 4.3282 -5.1182 0
M  V30 95 Ga 6.9538 3.5179 -4.0528 0
M  V30 96 Ba 7.4100 2.4827 -3.0928 0
M  V30 97 Ba 4.2777 1.9343 -6.1978 0
M  V30 98 Ga 4.7290 0.9011 -5.2333 0
M  V30 99 Ba 5.3748 0.0884 -4.1732 0
M  V30 END ATOM
M  V30 BEGIN BOND
M  V30 1 1 1 2
M  V30 2 1 1 3
M  V30 3 1 1 4
M  V30 4 1 1 5
M  V30 5 1 6 7
M  V30 6 1 6 8
M  V30 7 1 6 9
M  V30 8 1 6 10
M  V30 9 1 11 12
M  V30 10 1 11 13
M  V30 11 1 11 14
M  V30 12 1 11 15
M  V30 13 1 16 17
M  V30 14 1 16 18
M  V30 15 1 16 19
M  V30 16 1 16 20
M  V30 17 1 21 22
M  V30 18 1 21 23
M  V30 19 1 21 24
M  V30 20 1 21 25
M  V30 21 1 26 27
M  V30 22 1 26 28
M  V30 23 1 26 29
M  V30 24 1 26 30
M  V30 25 1 31 32
M  V30 26 1 31 33
M  V30 27 1 31 34
M  V30 28 1 31 35
M  V30 29 1 36 37
M  V30 30 1 36 38
M  V30 31 1 36 39
M  V30 32 1 36 40
M  V30 33 1 41 42
M  V30 34 1 41 43
M  V30 35 1 41 44
M  V30 36 1 41 45
M  V30 37 1 46 47
M  V30 38 1 47 48
M  V30 39 1 49 50
M  V30 40 1 50 51
M  V30 41 1 52 53
M  V30 42 1 53 54
M  V30 43 1 55 56
M  V30 44 1 56 57
M  V30 45 1 58 59
M  V30 46 1 59 60
M  V30 47 1 61 62
M  V30 48 1 62 63
M  V30 49 1 64 65
M  V30 50 1 65 66
M  V30 51 1 67 68
M  V30 52 1 68 69
M  V30 53 1 70 71
M  V30 54 1 71 72
M  V30 55 1 73 74
M  V30 56 1 74 75
M  V30 57 1 76 77
M  V30 58 1 77 78
M  V30 59 1 79 80
M  V30 60 1 80 81
M  V30 61 1 82 83
M  V30 62 1 83 84
M  V30 63 1 85 86
M  V30 64 1 86 87
M  V30 65 1 88 89
M  V30 66 1 89 90
M  V30 67 1 91 92
M  V30 68 1 92 93
M  V30 69 1 94 95
M  V30 70 1 95 96
M  V30 71 1 97 98
M  V30 72 1 98 99
M  V30 73 1 2 46
M  V30 74 1 3 88
M  V30 75 1 4 67
M  V30 76 1 5 64
M  V30 77 1 7 76
M  V30 78 1 8 48
M  V30 79 1 9 69
M  V30 80 1 10 73
M  V30 81 1 12 49
M  V30 82 1 13 58
M  V30 83 1 14 85
M  V30 84 1 15 91
M  V30 85 1 17 97
M  V30 86 1 18 61
M  V30 87 1 19 82
M  V30 88 1 20 94
M  V30 89 1 22 66
M  V30 90 1 23 78
M  V30 91 1 24 60
M  V30 92 1 25 70
M  V30 93 1 27 93
M  V30 94 1 28 75
M  V30 95 1 29 52
M  V30 96 1 30 72
M  V30 97 1 32 99
M  V30 98 1 33 96
M  V30 99 1 34 84
M  V30 100 1 35 51
M  V30 101 1 37 90
M  V30 102 1 38 79
M  V30 103 1 39 55
M  V30 104 1 40 63
M  V30 105 1 42 81
M  V30 106 1 43 87
M  V30 107 1 44 57
M  V30 108 1 45 54
M  V30 END BOND
M  V30 END CTAB
M  END

$$$$
