
     RDKit          3D

  0  0  0  0  0  0  0  0  0  0999 V3000
M  V30 BEGIN CTAB
M  V30 COUNTS 99 108 0 0 0
M  V30 BEGIN ATOM
M  V30 1 Pd 4.1368 -4.6584 5.4125 0
M  V30 2 Pb 4.4655 -3.8295 5.8593 0
M  V30 3 Pb 4.0531 -4.1597 4.5529 0
M  V30 4 Pb 3.8568 -5.5134 4.9746 0
M  V30 5 Pb 3.9943 -5.0761 6.3210 0
M  V30 6 Pd -0.9815 0.0811 2.0427 0
M  V30 7 Pb -0.3642 0.8669 2.0359 0
M  V30 8 Pb -1.4901 0.5491 1.3254 0
M  V30 9 Pb -0.9377 -0.1193 3.0251 0
M  V30 10 Pb -0.1786 -0.4822 2.2569 0
M  V30 11 Pd 0.1500 -7.4446 2.1861 0
M  V30 12 Pb 0.6431 -7.3087 1.3310 0
M  V30 13 Pb -0.3558 -7.4783 3.0483 0
M  V30 14 Pb 1.0117 -7.4831 2.6941 0
M  V30 15 Pb -0.6860 -7.4915 1.6323 0
M  V30 16 Pd -1.9011 -5.6856 -4.6258 0
M  V30 17 Pb -2.6991 -5.6423 -5.2198 0
M  V30 18 Pb -2.3198 -6.2837 -3.9401 0
M  V30 19 Pb -1.0598 -5.7571 -4.0947 0
M  V30 20 Pb -1.5240 -4.9527 -5.2086 0
M  V30 21 Pd -2.7313 -0.1041 -5.2209 0
M  V30 22 Pb -3.0747 -0.4728 -6.0802 0
M  V30 23 Pb -2.0139 0.4939 -5.5759 0
M  V30 24 Pb -2.2344 -0.8881 -5.6296 0
M  V30 25 Pb -2.8380 0.5192 -4.4529 0
M  V30 26 Pd 0.6680 2.5934 -2.2679 0
M  V30 27 Pb 0.5167 2.4950 -3.2567 0
M  V30 28 Pb 0.8261 2.7054 -1.2816 0
M  V30 29 Pb 1.6194 2.8221 -2.4417 0
M  V30 30 Pb -0.3131 2.6539 -2.1211 0
M  V30 31 Pd -2.5377 9.0126 -2.4865 0
M  V30 32 Pb -2.5264 10.0042 -2.5852 0
M  V30 33 Pb -2.6500 8.0258 -2.3580 0
M  V30 34 Pb -1.8788 9.0841 -1.7147 0
M  V30 35 Pb -2.7499 8.9340 -3.4604 0
M  V30 36 Pd 0.1533 -3.7591 8.6577 0
M  V30 37 Pb -0.4549 -3.0540 8.2990 0
M  V30 38 Pb 0.6974 -3.0341 9.0748 0
M  V30 39 Pb -0.3584 -4.4796 8.1876 0
M  V30 40 Pb 0.9097 -4.4096 8.8122 0
M  V30 41 Pd 2.5055 9.4517 -3.3235 0
M  V30 42 Pb 2.1268 9.4329 -2.3795 0
M  V30 43 Pb 2.4042 9.3827 -4.3158 0
M  V30 44 Pb 2.2964 10.4241 -3.3857 0
M  V30 45 Pb 2.8175 8.5019 -3.2654 0
M  V30 46 Ag -1.2549 -7.5681 1.1428 0
M  V30 47 Fe -2.0127 -7.1624 -1.0762 0
M  V30 48 Ag -2.5726 -6.6455 -3.3304 0
M  V30 49 Ag 3.8706 -3.7380 3.9619 0
M  V30 50 Fe 2.1633 -2.3059 3.1322 0
M  V30 51 Ag 0.4690 -0.8695 2.2835 0
M  V30 52 Ag -2.3736 10.7228 -2.6795 0
M  V30 53 Fe -0.2592 11.6466 -3.1028 0
M  V30 54 Ag 2.0029 11.1038 -3.4059 0
M  V30 55 Ag -1.0089 2.9055 -2.0403 0
M  V30 56 Fe -2.0319 5.0450 -2.1202 0
M  V30 57 Ag -2.7819 7.2929 -2.2550 0
M  V30 58 Ag -2.5685 8.9081 -4.1891 0
M  V30 59 Fe -0.3587 9.0708 -5.0540 0
M  V30 60 Ag 2.0057 9.3064 -4.9483 0
M  V30 61 Ag 0.9392 -7.1432 0.6663 0
M  V30 62 Fe 0.3680 -6.5012 -1.5435 0
M  V30 63 Ag -0.4498 -5.8728 -3.6784 0
M  V30 64 Ag 2.2517 3.1893 -2.5812 0
M  V30 65 Fe 2.8194 5.4674 -2.9252 0
M  V30 66 Ag 3.0969 7.8049 -3.2307 0
M  V30 67 Ag -3.1783 -5.4305 -5.7458 0
M  V30 68 Fe -3.6118 -3.2635 -6.5712 0
M  V30 69 Ag -3.4028 -0.9137 -6.5800 0
M  V30 70 Ag 4.5932 -3.2410 6.2938 0
M  V30 71 Fe 3.2421 -2.3747 8.0139 0
M  V30 72 Ag 1.2271 -2.5353 9.2158 0
M  V30 73 Ag -1.8385 0.9151 0.7766 0
M  V30 74 Fe -2.4203 1.0023 -1.5185 0
M  V30 75 Ag -2.9153 0.9261 -3.8342 0
M  V30 76 Ag -1.0715 -0.2474 3.7569 0
M  V30 77 Fe -0.9364 -1.3748 5.8464 0
M  V30 78 Ag -0.7942 -2.4891 7.9425 0
M  V30 79 Ag -0.7036 -7.4338 3.7116 0
M  V30 80 Fe -0.7736 -6.2823 5.7885 0
M  V30 81 Ag -0.7007 -5.0276 7.8047 0
M  V30 82 Ba -1.2677 9.1464 -1.2457 0
M  V30 83 Ga 0.2168 9.2759 -1.4787 0
M  V30 84 Ba 1.6971 9.4046 -1.7378 0
M  V30 85 Ba -1.2898 -4.3746 -5.6432 0
M  V30 86 Ga -1.5840 -2.9177 -5.7579 0
M  V30 87 Ba -1.8263 -1.4575 -5.9343 0
M  V30 88 Ba 3.8095 -5.3531 7.0058 0
M  V30 89 Ga 2.6701 -5.1197 7.9396 0
M  V30 90 Ba 1.5184 -4.8648 8.8523 0
M  V30 91 Ba -1.4531 0.9572 -5.7575 0
M  V30 92 Ga -0.5099 1.7028 -4.8968 0
M  V30 93 Ba 0.4147 2.4321 -4.0023 0
M  V30 94 Ba 3.6931 -6.1807 4.6727 0
M  V30 95 Ga 2.6435 -6.8238 3.8583 0
M  V30 96 Ba 1.6651 -7.5789 3.0516 0
M  V30 97 Ba 0.0903 1.4560 1.9433 0
M  V30 98 Ga 0.5340 2.1417 0.7106 0
M  V30 99 Ba 0.9557 2.8014 -0.5439 0
M  V30 END ATOM
M  V30 BEGIN BOND
M  V30 1 1 1 2
M  V30 2 1 1 3
M  V30 3 1 1 4
M  V30 4 1 1 5
M  V30 5 1 6 7
M  V30 6 1 6 8
M  V30 7 1 6 9
M  V30 8 1 6 10
M  V30 9 1 11 12
M  V30 10 1 11 13
M  V30 11 1 11 14
M  V30 12 1 11 15
M  V30 13 1 16 17
M  V30 14 1 16 18
M  V30 15 1 16 19
M  V30 16 1 16 20
M  V30 17 1 21 22
M  V30 18 1 21 23
M  V30 19 1 21 24
M  V30 20 1 21 25
M  V30 21 1 26 27
M  V30 22 1 26 28
M  V30 23 1 26 29
M  V30 24 1 26 30
M  V30 25 1 31 32
M  V30 26 1 31 33
M  V30 27 1 31 34
M  V30 28 1 31 35
M  V30 29 1 36 37
M  V30 30 1 36 38
M  V30 31 1 36 39
M  V30 32 1 36 40
M  V30 33 1 41 42
M  V30 34 1 41 43
M  V30 35 1 41 44
M  V30 36 1 41 45
M  V30 37 1 46 47
M  V30 38 1 47 48
M  V30 39 1 49 50
M  V30 40 1 50 51
M  V30 41 1 52 53
M  V30 42 1 53 54
M  V30 43 1 55 56
M  V30 44 1 56 57
M  V30 45 1 58 59
M  V30 46 1 59 60
M  V30 47 1 61 62
M  V30 48 1 62 63
M  V30 49 1 64 65
M  V30 50 1 65 66
M  V30 51 1 67 68
M  V30 52 1 68 69
M  V30 53 1 70 71
M  V30 54 1 71 72
M  V30 55 1 73 74
M  V30 56 1 74 75
M  V30 57 1 76 77
M  V30 58 1 77 78
M  V30 59 1 79 80
M  V30 60 1 80 81
M  V30 61 1 82 83
M  V30 62 1 83 84
M  V30 63 1 85 86
M  V30 64 1 86 87
M  V30 65 1 88 89
M  V30 66 1 89 90
M  V30 67 1 91 92
M  V30 68 1 92 93
M  V30 69 1 94 95
M  V30 70 1 95 96
M  V30 71 1 97 98
M  V30 72 1 98 99
M  V30 73 1 2 70
M  V30 74 1 3 49
M  V30 75 1 4 94
M  V30 76 1 5 88
M  V30 77 1 7 97
M  V30 78 1 8 73
M  V30 79 1 9 76
M  V30 80 1 10 51
M  V30 81 1 12 61
M  V30 82 1 13 79
M  V30 83 1 14 96
M  V30 84 1 15 46
M  V30 85 1 17 67
M  V30 86 1 18 48
M  V30 87 1 19 63
M  V30 88 1 20 85
M  V30 89 1 22 69
M  V30 90 1 23 91
M  V30 91 1 24 87
M  V30 92 1 25 75
M  V30 93 1 27 93
M  V30 94 1 28 99
M  V30 95 1 29 64
M  V30 96 1 30 55
M  V30 97 1 32 52
M  V30 98 1 33 57
M  V30 99 1 34 82
M  V30 100 1 35 58
M  V30 101 1 37 78
M  V30 102 1 38 72
M  V30 103 1 39 81
M  V30 104 1 40 90
M  V30 105 1 42 84
M  V30 106 1 43 60
M  V30 107 1 44 54
M  V30 108 1 45 66
M  V30 END BOND
M  V30 END CTAB
M  END

$$$$
