
     RDKit          3D

  0  0  0  0  0  0  0  0  0  0999 V3000
M  V30 BEGIN CTAB
M  V30 COUNTS 99 108 0 0 0
M  V30 BEGIN ATOM
M  V30 1 Pd -3.0179 -7.6889 -0.3544 0
M  V30 2 Pb -2.7098 -8.4839 -0.8696 0
M  V30 3 Pb -3.3283 -6.8977 0.1739 0
M  V30 4 Pb -3.1567 -7.2287 -1.2390 0
M  V30 5 Pb -2.5781 -8.0944 0.4484 0
M  V30 6 Pd 3.2363 2.0532 -1.4536 0
M  V30 7 Pb 3.0147 1.6681 -0.5361 0
M  V30 8 Pb 3.0013 2.2227 -2.4120 0
M  V30 9 Pb 2.7991 2.9054 -1.1901 0
M  V30 10 Pb 3.8998 2.1530 -0.7118 0
M  V30 11 Pd 4.8316 6.1576 7.0129 0
M  V30 12 Pb 5.1192 7.0696 7.3038 0
M  V30 13 Pb 4.4262 6.5600 6.1776 0
M  V30 14 Pb 4.5722 5.2468 6.6913 0
M  V30 15 Pb 5.5533 5.7519 7.5743 0
M  V30 16 Pd 0.2076 -0.2497 -5.4315 0
M  V30 17 Pb -0.5253 0.3216 -5.8056 0
M  V30 18 Pb -0.4380 -1.0096 -5.4692 0
M  V30 19 Pb 0.8270 0.5322 -5.3656 0
M  V30 20 Pb 0.8926 -0.8576 -5.0321 0
M  V30 21 Pd 0.8675 -7.3719 -3.0545 0
M  V30 22 Pb 0.3820 -8.2396 -2.9946 0
M  V30 23 Pb 0.0286 -6.9843 -3.4559 0
M  V30 24 Pb 1.5244 -7.7428 -2.3966 0
M  V30 25 Pb 1.3520 -6.5000 -3.1279 0
M  V30 26 Pd -7.0409 -0.9768 0.9948 0
M  V30 27 Pb -7.6140 -0.1903 0.7829 0
M  V30 28 Pb -6.6152 -0.4817 1.7512 0
M  V30 29 Pb -7.4115 -1.4357 0.1709 0
M  V30 30 Pb -6.4552 -1.7605 1.2063 0
M  V30 31 Pd -0.2331 1.3507 3.5616 0
M  V30 32 Pb -0.2649 2.2856 3.2275 0
M  V30 33 Pb 0.5907 1.1819 2.9856 0
M  V30 34 Pb 0.6707 1.5152 3.9569 0
M  V30 35 Pb -1.2274 1.3468 3.6755 0
M  V30 36 Pd 7.6736 6.6590 2.9694 0
M  V30 37 Pb 8.4922 6.2694 3.3920 0
M  V30 38 Pb 6.7094 6.9635 2.9297 0
M  V30 39 Pb 7.3891 5.7454 2.6787 0
M  V30 40 Pb 7.9388 7.5661 3.2949 0
M  V30 41 Pd -6.9106 -0.5406 -4.6822 0
M  V30 42 Pb -7.5317 0.2032 -4.4527 0
M  V30 43 Pb -6.3642 0.0502 -5.2771 0
M  V30 44 Pb -7.3562 -1.1101 -3.9739 0
M  V30 45 Pb -6.2452 -1.2604 -4.8667 0
M  V30 46 Ag 5.4408 7.7383 7.3446 0
M  V30 47 Fe 6.9211 8.6064 5.7351 0
M  V30 48 Ag 8.0104 8.1904 3.6917 0
M  V30 49 Ag -2.0067 -8.3607 0.8509 0
M  V30 50 Fe 0.2069 -8.4425 0.0152 0
M  V30 51 Ag 1.7390 -8.0362 -1.7432 0
M  V30 52 Ag -8.0112 0.3559 0.4747 0
M  V30 53 Fe -8.3113 0.9486 -1.7869 0
M  V30 54 Ag -7.9533 0.7031 -4.1035 0
M  V30 55 Ag -3.5591 -6.3225 0.5977 0
M  V30 56 Fe -4.7982 -4.3251 0.9437 0
M  V30 57 Ag -5.9985 -2.3253 1.3970 0
M  V30 58 Ag -6.2455 -0.1057 2.2836 0
M  V30 59 Fe -4.1264 0.6313 3.0630 0
M  V30 60 Ag -1.9714 1.3309 3.7757 0
M  V30 61 Ag 4.4165 2.2333 -0.1739 0
M  V30 62 Fe 5.7889 3.6449 1.1543 0
M  V30 63 Ag 7.1603 5.0589 2.4811 0
M  V30 64 Ag -0.9805 -1.5236 -5.4852 0
M  V30 65 Fe -3.3262 -1.7944 -5.2676 0
M  V30 66 Ag -5.6815 -1.7324 -4.9996 0
M  V30 67 Ag 2.4190 3.4676 -0.8944 0
M  V30 68 Fe 0.9953 3.6345 0.9765 0
M  V30 69 Ag -0.2028 2.9378 2.8828 0
M  V30 70 Ag 1.3578 -1.3549 -4.7200 0
M  V30 71 Fe 1.5972 -3.5861 -3.9437 0
M  V30 72 Ag 1.7016 -5.8410 -3.2066 0
M  V30 73 Ag 6.2453 5.4982 7.7085 0
M  V30 74 Fe 7.9916 5.5104 6.1021 0
M  V30 75 Ag 8.8855 5.9627 3.9511 0
M  V30 76 Ag 4.3938 4.5668 6.4299 0
M  V30 77 Fe 2.8641 3.1034 5.3534 0
M  V30 78 Ag 1.3382 1.6357 4.2774 0
M  V30 79 Ag -1.1367 0.6759 -6.0620 0
M  V30 80 Fe -3.5114 0.6848 -5.9588 0
M  V30 81 Ag -5.8575 0.4553 -5.6554 0
M  V30 82 Ba 2.8555 2.3604 -3.1360 0
M  V30 83 Ga 2.0631 1.7356 -4.2128 0
M  V30 84 Ba 1.2778 1.1282 -5.3046 0
M  V30 85 Ba 4.2590 6.8429 5.4857 0
M  V30 86 Ga 5.0890 7.0089 4.2477 0
M  V30 87 Ba 5.9746 7.1462 3.0453 0
M  V30 88 Ba -2.4331 -9.0494 -1.2690 0
M  V30 89 Ga -1.2381 -9.0496 -2.1200 0
M  V30 90 Ba -0.0227 -8.8612 -2.9195 0
M  V30 91 Ba -7.7008 -1.7694 -0.4519 0
M  V30 92 Ga -7.6588 -1.6194 -1.9356 0
M  V30 93 Ba -7.6701 -1.5367 -3.4252 0
M  V30 94 Ba -3.1093 -6.9146 -1.9293 0
M  V30 95 Ga -1.9235 -6.7920 -2.8261 0
M  V30 96 Ba -0.6673 -6.7314 -3.6283 0
M  V30 97 Ba 2.9096 1.3460 0.1536 0
M  V30 98 Ga 1.9943 1.2476 1.3327 0
M  V30 99 Ba 1.2303 1.0092 2.5966 0
M  V30 END ATOM
M  V30 BEGIN BOND
M  V30 1 1 1 2
M  V30 2 1 1 3
M  V30 3 1 1 4
M  V30 4 1 1 5
M  V30 5 1 6 7
M  V30 6 1 6 8
M  V30 7 1 6 9
M  V30 8 1 6 10
M  V30 9 1 11 12
M  V30 10 1 11 13
M  V30 11 1 11 14
M  V30 12 1 11 15
M  V30 13 1 16 17
M  V30 14 1 16 18
M  V30 15 1 16 19
M  V30 16 1 16 20
M  V30 17 1 21 22
M  V30 18 1 21 23
M  V30 19 1 21 24
M  V30 20 1 21 25
M  V30 21 1 26 27
M  V30 22 1 26 28
M  V30 23 1 26 29
M  V30 24 1 26 30
M  V30 25 1 31 32
M  V30 26 1 31 33
M  V30 27 1 31 34
M  V30 28 1 31 35
M  V30 29 1 36 37
M  V30 30 1 36 38
M  V30 31 1 36 39
M  V30 32 1 36 40
M  V30 33 1 41 42
M  V30 34 1 41 43
M  V30 35 1 41 44
M  V30 36 1 41 45
M  V30 37 1 46 47
M  V30 38 1 47 48
M  V30 39 1 49 50
M  V30 40 1 50 51
M  V30 41 1 52 53
M  V30 42 1 53 54
M  V30 43 1 55 56
M  V30 44 1 56 57
M  V30 45 1 58 59
M  V30 46 1 59 60
M  V30 47 1 61 62
M  V30 48 1 62 63
M  V30 49 1 64 65
M  V30 50 1 65 66
M  V30 51 1 67 68
M  V30 52 1 68 69
M  V30 53 1 70 71
M  V30 54 1 71 72
M  V30 55 1 73 74
M  V30 56 1 74 75
M  V30 57 1 76 77
M  V30 58 1 77 78
M  V30 59 1 79 80
M  V30 60 1 80 81
M  V30 61 1 82 83
M  V30 62 1 83 84
M  V30 63 1 85 86
M  V30 64 1 86 87
M  V30 65 1 88 89
M  V30 66 1 89 90
M  V30 67 1 91 92
M  V30 68 1 92 93
M  V30 69 1 94 95
M  V30 70 1 95 96
M  V30 71 1 97 98
M  V30 72 1 98 99
M  V30 73 1 2 88
M  V30 74 1 3 55
M  V30 75 1 4 94
M  V30 76 1 5 49
M  V30 77 1 7 97
M  V30 78 1 8 82
M  V30 79 1 9 67
M  V30 80 1 10 61
M  V30 81 1 12 46
M  V30 82 1 13 85
M  V30 83 1 14 76
M  V30 84 1 15 73
M  V30 85 1 17 79
M  V30 86 1 18 64
M  V30 87 1 19 84
M  V30 88 1 20 70
M  V30 89 1 22 90
M  V30 90 1 23 96
M  V30 91 1 24 51
M  V30 92 1 25 72
M  V30 93 1 27 52
M  V30 94 1 28 58
M  V30 95 1 29 91
M  V30 96 1 30 57
M  V30 97 1 32 69
M  V30 98 1 33 99
M  V30 99 1 34 78
M  V30 100 1 35 60
M  V30 101 1 37 75
M  V30 102 1 38 87
M  V30 103 1 39 63
M  V30 104 1 40 48
M  V30 105 1 42 54
M  V30 106 1 43 81
M  V30 107 1 44 93
M  V30 108 1 45 66
M  V30 END BOND
M  V30 END CTAB
M  END

$$$$
