
     RDKit          3D

  0  0  0  0  0  0  0  0  0  0999 V3000
M  V30 BEGIN CTAB
M  V30 COUNTS 99 108 0 0 0
M  V30 BEGIN ATOM
M  V30 1 Pd 0.7305 2.8420 3.2592 0
M  V30 2 Pb 1.5858 3.3585 3.2557 0
M  V30 3 Pb 1.2522 2.0540 2.9317 0
M  V30 4 Pb 0.2273 3.6508 3.5609 0
M  V30 5 Pb -0.1416 2.3538 3.1876 0
M  V30 6 Pd 1.2802 -8.1672 2.0295 0
M  V30 7 Pb 0.9881 -8.1452 1.0734 0
M  V30 8 Pb 1.5607 -8.0892 2.9832 0
M  V30 9 Pb 0.3464 -8.3540 2.3302 0
M  V30 10 Pb 2.1751 -7.7898 1.7884 0
M  V30 11 Pd 2.4332 2.0658 -4.8670 0
M  V30 12 Pb 3.1410 2.0239 -4.1570 0
M  V30 13 Pb 2.3897 1.0694 -4.9415 0
M  V30 14 Pb 1.6901 2.1289 -5.5314 0
M  V30 15 Pb 2.4614 3.0606 -4.8165 0
M  V30 16 Pd -2.8689 1.7548 -4.2284 0
M  V30 17 Pb -2.2562 1.9157 -5.0035 0
M  V30 18 Pb -2.6526 2.6790 -3.8512 0
M  V30 19 Pb -3.1039 0.8574 -4.6046 0
M  V30 20 Pb -3.4954 1.5916 -3.4768 0
M  V30 21 Pd -1.9906 -3.9383 -3.6705 0
M  V30 22 Pb -1.5408 -4.7338 -3.2586 0
M  V30 23 Pb -1.1361 -3.6897 -4.1250 0
M  V30 24 Pb -2.4676 -3.2013 -4.1546 0
M  V30 25 Pb -2.8122 -4.1185 -3.1303 0
M  V30 26 Pd -1.9988 5.7611 0.3024 0
M  V30 27 Pb -2.0614 5.5338 -0.6897 0
M  V30 28 Pb -1.2422 6.3964 0.1424 0
M  V30 29 Pb -1.9016 5.9251 1.2821 0
M  V30 30 Pb -2.7475 5.1386 0.4923 0
M  V30 31 Pd 3.2354 5.2645 -0.7882 0
M  V30 32 Pb 3.4347 5.1060 0.1813 0
M  V30 33 Pb 2.6765 6.0590 -0.5546 0
M  V30 34 Pb 3.0528 5.4511 -1.7503 0
M  V30 35 Pb 3.7478 4.4459 -1.0599 0
M  V30 36 Pd -3.8488 -3.3653 3.4362 0
M  V30 37 Pb -4.3079 -3.5855 2.5754 0
M  V30 38 Pb -3.3153 -3.1152 4.2444 0
M  V30 39 Pb -3.7429 -4.3480 3.5955 0
M  V30 40 Pb -3.8747 -2.3869 3.2383 0
M  V30 41 Pd 3.1134 -2.2810 4.6330 0
M  V30 42 Pb 3.1289 -3.0987 5.2028 0
M  V30 43 Pb 3.0369 -1.5300 3.9758 0
M  V30 44 Pb 2.3462 -1.9476 5.1774 0
M  V30 45 Pb 3.7436 -2.7567 4.0182 0
M  V30 46 Ag 0.7646 -8.0787 0.3604 0
M  V30 47 Fe -0.2296 -6.7105 -1.3095 0
M  V30 48 Ag -1.2198 -5.3626 -2.9979 0
M  V30 49 Ag -3.3944 -4.2069 -2.6662 0
M  V30 50 Fe -4.0980 -4.0195 -0.4057 0
M  V30 51 Ag -4.5894 -3.7660 1.9040 0
M  V30 52 Ag 2.8005 -7.3821 1.7083 0
M  V30 53 Fe 3.6663 -5.3182 2.5068 0
M  V30 54 Ag 4.0954 -3.2268 3.5501 0
M  V30 55 Ag 1.7896 -7.9059 3.6695 0
M  V30 56 Fe 2.4867 -5.9640 4.8336 0
M  V30 57 Ag 3.0914 -3.7763 5.5122 0
M  V30 58 Ag -3.9120 1.5726 -2.8671 0
M  V30 59 Fe -3.9453 2.8982 -0.9226 0
M  V30 60 Ag -3.2741 4.6219 0.5329 0
M  V30 61 Ag -0.3524 -8.3549 2.5995 0
M  V30 62 Fe -2.0873 -6.8361 3.1689 0
M  V30 63 Ag -3.6264 -5.0888 3.6384 0
M  V30 64 Ag -0.8194 2.0384 3.1040 0
M  V30 65 Fe -2.3282 0.2032 3.1072 0
M  V30 66 Ag -3.8149 -1.6499 3.1196 0
M  V30 67 Ag -2.8672 -2.8405 4.7802 0
M  V30 68 Fe -0.6215 -2.2741 5.3051 0
M  V30 69 Ag 1.7005 -1.8359 5.5395 0
M  V30 70 Ag 2.3141 0.3285 -5.0320 0
M  V30 71 Fe 0.9611 -1.6027 -4.7500 0
M  V30 72 Ag -0.4826 -3.4570 -4.4085 0
M  V30 73 Ba 2.2310 3.7360 3.2024 0
M  V30 74 Ga 2.9174 4.3777 2.0638 0
M  V30 75 Ba 3.5879 5.0129 0.9120 0
M  V30 76 Ba -3.3078 0.1984 -4.9013 0
M  V30 77 Ga -3.0416 -1.2392 -4.6899 0
M  V30 78 Ba -2.8474 -2.6982 -4.5656 0
M  V30 79 Ba -2.4972 3.4018 -3.6347 0
M  V30 80 Ga -2.3092 4.3236 -2.4689 0
M  V30 81 Ba -2.0880 5.3955 -1.4458 0
M  V30 82 Ba 2.4805 3.8050 -4.7663 0
M  V30 83 Ga 2.6974 4.7199 -3.6366 0
M  V30 84 Ba 2.9201 5.5890 -2.4722 0
M  V30 85 Ba 3.6542 2.0266 -3.6052 0
M  V30 86 Ga 3.8964 2.9155 -2.4466 0
M  V30 87 Ba 4.1056 3.8277 -1.2998 0
M  V30 88 Ba 1.1106 2.1815 -6.0027 0
M  V30 89 Ga -0.3496 2.1058 -5.8092 0
M  V30 90 Ba -1.8067 2.0271 -5.5949 0
M  V30 91 Ba -0.1642 4.2612 3.7493 0
M  V30 92 Ga -0.9915 5.1655 2.9330 0
M  V30 93 Ba -1.7901 5.9984 2.0181 0
M  V30 94 Ba 1.6928 1.5119 2.6582 0
M  V30 95 Ga 2.3091 0.2438 3.0944 0
M  V30 96 Ba 2.9788 -1.0312 3.4173 0
M  V30 97 Ba -0.6727 6.8805 0.0687 0
M  V30 98 Ga 0.7780 6.7694 -0.1750 0
M  V30 99 Ba 2.2271 6.6432 -0.4205 0
M  V30 END ATOM
M  V30 BEGIN BOND
M  V30 1 1 1 2
M  V30 2 1 1 3
M  V30 3 1 1 4
M  V30 4 1 1 5
M  V30 5 1 6 7
M  V30 6 1 6 8
M  V30 7 1 6 9
M  V30 8 1 6 10
M  V30 9 1 11 12
M  V30 10 1 11 13
M  V30 11 1 11 14
M  V30 12 1 11 15
M  V30 13 1 16 17
M  V30 14 1 16 18
M  V30 15 1 16 19
M  V30 16 1 16 20
M  V30 17 1 21 22
M  V30 18 1 21 23
M  V30 19 1 21 24
M  V30 20 1 21 25
M  V30 21 1 26 27
M  V30 22 1 26 28
M  V30 23 1 26 29
M  V30 24 1 26 30
M  V30 25 1 31 32
M  V30 26 1 31 33
M  V30 27 1 31 34
M  V30 28 1 31 35
M  V30 29 1 36 37
M  V30 30 1 36 38
M  V30 31 1 36 39
M  V30 32 1 36 40
M  V30 33 1 41 42
M  V30 34 1 41 43
M  V30 35 1 41 44
M  V30 36 1 41 45
M  V30 37 1 46 47
M  V30 38 1 47 48
M  V30 39 1 49 50
M  V30 40 1 50 51
M  V30 41 1 52 53
M  V30 42 1 53 54
M  V30 43 1 55 56
M  V30 44 1 56 57
M  V30 45 1 58 59
M  V30 46 1 59 60
M  V30 47 1 61 62
M  V30 48 1 62 63
M  V30 49 1 64 65
M  V30 50 1 65 66
M  V30 51 1 67 68
M  V30 52 1 68 69
M  V30 53 1 70 71
M  V30 54 1 71 72
M  V30 55 1 73 74
M  V30 56 1 74 75
M  V30 57 1 76 77
M  V30 58 1 77 78
M  V30 59 1 79 80
M  V30 60 1 80 81
M  V30 61 1 82 83
M  V30 62 1 83 84
M  V30 63 1 85 86
M  V30 64 1 86 87
M  V30 65 1 88 89
M  V30 66 1 89 90
M  V30 67 1 91 92
M  V30 68 1 92 93
M  V30 69 1 94 95
M  V30 70 1 95 96
M  V30 71 1 97 98
M  V30 72 1 98 99
M  V30 73 1 2 73
M  V30 74 1 3 94
M  V30 75 1 4 91
M  V30 76 1 5 64
M  V30 77 1 7 46
M  V30 78 1 8 55
M  V30 79 1 9 61
M  V30 80 1 10 52
M  V30 81 1 12 85
M  V30 82 1 13 70
M  V30 83 1 14 88
M  V30 84 1 15 82
M  V30 85 1 17 90
M  V30 86 1 18 79
M  V30 87 1 19 76
M  V30 88 1 20 58
M  V30 89 1 22 48
M  V30 90 1 23 72
M  V30 91 1 24 78
M  V30 92 1 25 49
M  V30 93 1 27 81
M  V30 94 1 28 97
M  V30 95 1 29 93
M  V30 96 1 30 60
M  V30 97 1 32 75
M  V30 98 1 33 99
M  V30 99 1 34 84
M  V30 100 1 35 87
M  V30 101 1 37 51
M  V30 102 1 38 67
M  V30 103 1 39 63
M  V30 104 1 40 66
M  V30 105 1 42 57
M  V30 106 1 43 96
M  V30 107 1 44 69
M  V30 108 1 45 54
M  V30 END BOND
M  V30 END CTAB
M  END

$$$$
