
     RDKit          3D

  0  0  0  0  0  0  0  0  0  0999 V3000
M  V30 BEGIN CTAB
M  V30 COUNTS 99 108 0 0 0
M  V30 BEGIN ATOM
M  V30 1 Pd -2.6870 0.7365 -3.8840 0
M  V30 2 Pb -3.2906 1.2045 -3.2385 0
M  V30 3 Pb -2.0438 0.3085 -4.5208 0
M  V30 4 Pb -3.0503 -0.1640 -3.6360 0
M  V30 5 Pb -2.3266 1.6286 -4.1462 0
M  V30 6 Pd 7.3236 -1.0676 -3.0446 0
M  V30 7 Pb 6.4786 -1.1622 -2.5176 0
M  V30 8 Pb 8.1326 -0.9242 -3.6092 0
M  V30 9 Pb 7.5794 -0.2620 -2.5187 0
M  V30 10 Pb 6.9304 -1.6619 -3.7591 0
M  V30 11 Pd -1.9466 1.8294 6.6549 0
M  V30 12 Pb -2.4623 2.4981 6.0828 0
M  V30 13 Pb -1.0646 2.0952 6.2548 0
M  V30 14 Pb -1.5320 1.0619 7.1386 0
M  V30 15 Pb -2.7880 1.5984 7.1264 0
M  V30 16 Pd -1.4920 -5.1861 4.8758 0
M  V30 17 Pb -1.4453 -4.6455 5.7149 0
M  V30 18 Pb -2.4670 -5.3832 4.9859 0
M  V30 19 Pb -0.5469 -4.9026 4.7333 0
M  V30 20 Pb -1.5152 -5.6841 4.0090 0
M  V30 21 Pd 2.2226 0.9855 2.6056 0
M  V30 22 Pb 2.5069 0.4907 1.7838 0
M  V30 23 Pb 1.9403 1.4782 3.4327 0
M  V30 24 Pb 2.2590 0.1071 3.0808 0
M  V30 25 Pb 2.2205 1.8524 2.1059 0
M  V30 26 Pd -5.0009 -4.7678 1.1849 0
M  V30 27 Pb -5.1497 -5.0287 2.1413 0
M  V30 28 Pb -5.7873 -4.1500 1.2016 0
M  V30 29 Pb -4.8269 -4.4853 0.2405 0
M  V30 30 Pb -4.1949 -5.3592 1.1774 0
M  V30 31 Pd -6.4374 2.1462 2.9448 0
M  V30 32 Pb -6.0884 2.3935 2.0416 0
M  V30 33 Pb -7.0197 1.4573 2.5185 0
M  V30 34 Pb -6.8312 1.9045 3.8228 0
M  V30 35 Pb -5.7376 2.7216 3.4149 0
M  V30 36 Pd 3.5872 4.7214 -3.9821 0
M  V30 37 Pb 3.3128 4.8136 -3.0249 0
M  V30 38 Pb 3.8106 4.5862 -4.9523 0
M  V30 39 Pb 4.5105 4.5198 -3.6522 0
M  V30 40 Pb 2.6400 4.8582 -4.2580 0
M  V30 41 Pd 4.4421 0.5155 -7.2862 0
M  V30 42 Pb 5.3817 0.7068 -7.5571 0
M  V30 43 Pb 3.4894 0.2772 -7.0803 0
M  V30 44 Pb 4.2188 1.4723 -7.4794 0
M  V30 45 Pb 4.7416 -0.3951 -6.9528 0
M  V30 46 Ag 5.8211 -1.2202 -2.1603 0
M  V30 47 Fe 4.2922 -0.5461 -0.4718 0
M  V30 48 Ag 2.7163 0.0790 1.1923 0
M  V30 49 Ag -3.7023 1.6195 -2.7683 0
M  V30 50 Fe -4.7746 2.0498 -0.6935 0
M  V30 51 Ag -5.8778 2.5699 1.3443 0
M  V30 52 Ag 2.2343 2.5026 1.7312 0
M  V30 53 Fe 2.6589 3.6992 -0.2763 0
M  V30 54 Ag 3.0969 4.8501 -2.3076 0
M  V30 55 Ag 0.1296 -4.5930 4.6637 0
M  V30 56 Fe 1.2780 -2.6156 4.0286 0
M  V30 57 Ag 2.3110 -0.5838 3.3670 0
M  V30 58 Ag -3.4619 1.4502 7.3893 0
M  V30 59 Fe -5.5793 1.4438 6.3711 0
M  V30 60 Ag -6.9963 1.7218 4.5182 0
M  V30 61 Ag 8.5884 -0.7239 -4.1572 0
M  V30 62 Fe 7.8814 0.1461 -6.2248 0
M  V30 63 Ag 6.1157 0.7634 -7.6525 0
M  V30 64 Ag -1.3356 0.4107 7.4497 0
M  V30 65 Fe -1.2806 -1.9193 7.0008 0
M  V30 66 Ag -1.3234 -4.1848 6.2935 0
M  V30 67 Ag 7.6689 0.4441 -2.2947 0
M  V30 68 Fe 6.5369 2.4922 -2.6922 0
M  V30 69 Ag 5.1488 4.3160 -3.3120 0
M  V30 70 Ag -3.3110 -0.8518 -3.4786 0
M  V30 71 Fe -4.0038 -2.5419 -1.9578 0
M  V30 72 Ag -4.7030 -4.2523 -0.4628 0
M  V30 73 Ag -2.0390 2.2909 -4.3381 0
M  V30 74 Fe -0.1130 3.6698 -4.4313 0
M  V30 75 Ag 1.9174 4.8932 -4.4394 0
M  V30 76 Ag -1.5438 0.0149 -4.9987 0
M  V30 77 Fe 0.6315 0.0594 -5.9579 0
M  V30 78 Ag 2.7848 0.0359 -6.9662 0
M  V30 79 Ag -6.3457 -3.6494 1.1993 0
M  V30 80 Fe -6.9854 -1.4130 1.6730 0
M  V30 81 Ag -7.3696 0.8614 2.2328 0
M  V30 82 Ba -3.2077 -5.5053 5.0073 0
M  V30 83 Ga -4.2431 -5.3790 3.9606 0
M  V30 84 Ba -5.2210 -5.2300 2.8628 0
M  V30 85 Ba 6.5918 -2.0170 -4.3414 0
M  V30 86 Ga 5.7900 -1.5382 -5.5075 0
M  V30 87 Ba 4.9874 -1.0647 -6.6752 0
M  V30 88 Ba -2.8719 2.9893 5.6533 0
M  V30 89 Ga -4.0431 3.0061 4.7149 0
M  V30 90 Ba -5.1973 3.1451 3.7656 0
M  V30 91 Ba -1.5646 -6.0353 3.3483 0
M  V30 92 Ga -2.5522 -5.9417 2.2573 0
M  V30 93 Ba -3.5821 -5.7896 1.2129 0
M  V30 94 Ba 3.8858 4.4912 -5.6978 0
M  V30 95 Ga 4.0100 3.3514 -6.6344 0
M  V30 96 Ba 4.1368 2.2140 -7.5737 0
M  V30 97 Ba -0.3846 2.3275 6.0256 0
M  V30 98 Ga 0.6468 2.0570 4.9999 0
M  V30 99 Ba 1.7565 1.8907 4.0354 0
M  V30 END ATOM
M  V30 BEGIN BOND
M  V30 1 1 1 2
M  V30 2 1 1 3
M  V30 3 1 1 4
M  V30 4 1 1 5
M  V30 5 1 6 7
M  V30 6 1 6 8
M  V30 7 1 6 9
M  V30 8 1 6 10
M  V30 9 1 11 12
M  V30 10 1 11 13
M  V30 11 1 11 14
M  V30 12 1 11 15
M  V30 13 1 16 17
M  V30 14 1 16 18
M  V30 15 1 16 19
M  V30 16 1 16 20
M  V30 17 1 21 22
M  V30 18 1 21 23
M  V30 19 1 21 24
M  V30 20 1 21 25
M  V30 21 1 26 27
M  V30 22 1 26 28
M  V30 23 1 26 29
M  V30 24 1 26 30
M  V30 25 1 31 32
M  V30 26 1 31 33
M  V30 27 1 31 34
M  V30 28 1 31 35
M  V30 29 1 36 37
M  V30 30 1 36 38
M  V30 31 1 36 39
M  V30 32 1 36 40
M  V30 33 1 41 42
M  V30 34 1 41 43
M  V30 35 1 41 44
M  V30 36 1 41 45
M  V30 37 1 46 47
M  V30 38 1 47 48
M  V30 39 1 49 50
M  V30 40 1 50 51
M  V30 41 1 52 53
M  V30 42 1 53 54
M  V30 43 1 55 56
M  V30 44 1 56 57
M  V30 45 1 58 59
M  V30 46 1 59 60
M  V30 47 1 61 62
M  V30 48 1 62 63
M  V30 49 1 64 65
M  V30 50 1 65 66
M  V30 51 1 67 68
M  V30 52 1 68 69
M  V30 53 1 70 71
M  V30 54 1 71 72
M  V30 55 1 73 74
M  V30 56 1 74 75
M  V30 57 1 76 77
M  V30 58 1 77 78
M  V30 59 1 79 80
M  V30 60 1 80 81
M  V30 61 1 82 83
M  V30 62 1 83 84
M  V30 63 1 85 86
M  V30 64 1 86 87
M  V30 65 1 88 89
M  V30 66 1 89 90
M  V30 67 1 91 92
M  V30 68 1 92 93
M  V30 69 1 94 95
M  V30 70 1 95 96
M  V30 71 1 97 98
M  V30 72 1 98 99
M  V30 73 1 2 49
M  V30 74 1 3 76
M  V30 75 1 4 70
M  V30 76 1 5 73
M  V30 77 1 7 46
M  V30 78 1 8 61
M  V30 79 1 9 67
M  V30 80 1 10 85
M  V30 81 1 12 88
M  V30 82 1 13 97
M  V30 83 1 14 64
M  V30 84 1 15 58
M  V30 85 1 17 66
M  V30 86 1 18 82
M  V30 87 1 19 55
M  V30 88 1 20 91
M  V30 89 1 22 48
M  V30 90 1 23 99
M  V30 91 1 24 57
M  V30 92 1 25 52
M  V30 93 1 27 84
M  V30 94 1 28 79
M  V30 95 1 29 72
M  V30 96 1 30 93
M  V30 97 1 32 51
M  V30 98 1 33 81
M  V30 99 1 34 60
M  V30 100 1 35 90
M  V30 101 1 37 54
M  V30 102 1 38 94
M  V30 103 1 39 69
M  V30 104 1 40 75
M  V30 105 1 42 63
M  V30 106 1 43 78
M  V30 107 1 44 96
M  V30 108 1 45 87
M  V30 END BOND
M  V30 END CTAB
M  END

$$$$
