
     RDKit          3D

  0  0  0  0  0  0  0  0  0  0999 V3000
M  V30 BEGIN CTAB
M  V30 COUNTS 99 108 0 0 0
M  V30 BEGIN ATOM
M  V30 1 Pd -0.4474 2.4696 1.3484 0
M  V30 2 Pb -1.4226 2.5406 1.5555 0
M  V30 3 Pb -0.4773 1.5127 1.6407 0
M  V30 4 Pb -0.4608 3.4147 1.0254 0
M  V30 5 Pb 0.5116 2.3978 1.0632 0
M  V30 6 Pd 1.4975 -4.0485 7.4021 0
M  V30 7 Pb 1.6724 -4.4299 6.4931 0
M  V30 8 Pb 1.3145 -3.6484 8.2980 0
M  V30 9 Pb 2.4566 -3.7795 7.4527 0
M  V30 10 Pb 0.5007 -4.1142 7.2529 0
M  V30 11 Pd -1.4129 -2.8285 -3.7909 0
M  V30 12 Pb -1.9052 -2.3571 -4.5081 0
M  V30 13 Pb -0.9315 -3.3668 -3.0948 0
M  V30 14 Pb -0.8798 -3.2445 -4.5244 0
M  V30 15 Pb -1.9709 -2.3502 -3.0798 0
M  V30 16 Pd 1.3882 -0.1314 -6.9609 0
M  V30 17 Pb 1.1130 -1.0880 -7.0607 0
M  V30 18 Pb 0.5251 0.2314 -7.3243 0
M  V30 19 Pb 2.1987 -0.4575 -6.4791 0
M  V30 20 Pb 1.6622 0.8175 -6.8282 0
M  V30 21 Pd 3.2607 -3.3682 -0.2909 0
M  V30 22 Pb 3.0581 -3.8112 0.5853 0
M  V30 23 Pb 2.4133 -3.7679 -0.6497 0
M  V30 24 Pb 3.4963 -2.9799 -1.1827 0
M  V30 25 Pb 4.1068 -2.9757 0.0755 0
M  V30 26 Pd -2.3435 5.5106 -4.7747 0
M  V30 27 Pb -2.5675 4.8923 -5.5327 0
M  V30 28 Pb -3.2796 5.5253 -4.4197 0
M  V30 29 Pb -2.0493 5.9898 -3.9517 0
M  V30 30 Pb -1.3963 5.4471 -5.0774 0
M  V30 31 Pd -4.6469 1.9871 -1.8787 0
M  V30 32 Pb -4.5365 2.1780 -0.9013 0
M  V30 33 Pb -4.9919 2.9086 -2.0565 0
M  V30 34 Pb -4.2602 1.0486 -1.7491 0
M  V30 35 Pb -4.7755 1.8185 -2.8454 0
M  V30 36 Pd 4.5065 0.6893 3.0342 0
M  V30 37 Pb 5.0748 0.0625 2.5014 0
M  V30 38 Pb 3.8804 1.2816 3.5407 0
M  V30 39 Pb 4.7822 0.2038 3.8654 0
M  V30 40 Pb 4.1866 1.1361 2.2008 0
M  V30 41 Pd -1.8644 -0.2305 5.9124 0
M  V30 42 Pb -1.9755 -0.0280 6.8832 0
M  V30 43 Pb -1.6574 -0.4621 4.9604 0
M  V30 44 Pb -1.4605 0.6674 5.7594 0
M  V30 45 Pb -2.0602 -1.2021 6.1082 0
M  V30 46 Ag 1.8151 -4.7115 5.8115 0
M  V30 47 Fe 2.3574 -4.4045 3.5175 0
M  V30 48 Ag 2.8984 -4.1953 1.2123 0
M  V30 49 Ag 2.7541 -0.7165 -6.0503 0
M  V30 50 Fe 3.2701 -1.7123 -3.9574 0
M  V30 51 Ag 3.7144 -2.7064 -1.8472 0
M  V30 52 Ag -0.1122 0.5910 -7.5100 0
M  V30 53 Fe -1.4726 2.4482 -6.9012 0
M  V30 54 Ag -2.6187 4.3612 -6.0661 0
M  V30 55 Ag 1.0564 -3.2530 8.8721 0
M  V30 56 Fe -0.4922 -1.4775 8.8362 0
M  V30 57 Ag -1.8987 -0.0300 7.6214 0
M  V30 58 Ag -2.3111 -1.9628 -4.9797 0
M  V30 59 Fe -3.7181 -0.0972 -4.7402 0
M  V30 60 Ag -4.7936 1.6216 -3.5546 0
M  V30 61 Ag 1.7839 1.5452 -6.7172 0
M  V30 62 Fe 0.6920 3.5333 -6.0315 0
M  V30 63 Ag -0.6993 5.3078 -5.3034 0
M  V30 64 Ag 3.1286 -3.4582 7.3872 0
M  V30 65 Fe 4.1933 -1.8440 6.0097 0
M  V30 66 Ag 4.9602 -0.2107 4.4660 0
M  V30 67 Ag -0.5093 4.1034 0.7359 0
M  V30 68 Fe -1.1183 5.3269 -1.2026 0
M  V30 69 Ag -1.8017 6.2257 -3.2881 0
M  V30 70 Ag 3.3480 1.6988 3.8638 0
M  V30 71 Fe 1.1610 1.6618 4.7834 0
M  V30 72 Ag -1.0129 1.2531 5.6410 0
M  V30 73 Ba -2.1621 2.5889 1.6680 0
M  V30 74 Ga -3.3196 2.4562 0.7614 0
M  V30 75 Ba -4.4594 2.3188 -0.1666 0
M  V30 76 Ba 4.7482 -2.6761 0.3290 0
M  V30 77 Ga 5.1158 -1.5552 1.2169 0
M  V30 78 Ba 5.4760 -0.4330 2.1063 0
M  V30 79 Ba -2.3928 -2.0220 -2.5229 0
M  V30 80 Ga -3.1700 -0.7927 -2.1517 0
M  V30 81 Ba -3.9847 0.3420 -1.6025 0
M  V30 82 Ba -0.2484 -4.0898 7.1194 0
M  V30 83 Ga -1.1974 -3.0201 6.6965 0
M  V30 84 Ba -2.1363 -1.9416 6.2732 0
M  V30 85 Ba -0.5147 -3.4794 -5.1336 0
M  V30 86 Ga 0.2311 -2.6958 -6.1348 0
M  V30 87 Ba 0.9543 -1.8214 -7.0758 0
M  V30 88 Ba 1.2148 2.3755 0.7940 0
M  V30 89 Ga 2.5560 1.9170 1.2067 0
M  V30 90 Ba 3.9093 1.4689 1.5905 0
M  V30 91 Ba -0.5551 0.7934 1.8430 0
M  V30 92 Ga -1.0022 0.0820 3.0578 0
M  V30 93 Ba -1.4469 -0.6471 4.2629 0
M  V30 94 Ba -3.9528 5.5334 -4.0860 0
M  V30 95 Ga -4.6246 4.5849 -3.1755 0
M  V30 96 Ba -5.2310 3.5857 -2.2735 0
M  V30 97 Ba -0.6021 -3.8210 -2.5927 0
M  V30 98 Ga 0.6112 -3.9021 -1.7512 0
M  V30 99 Ba 1.7766 -4.1080 -0.8644 0
M  V30 END ATOM
M  V30 BEGIN BOND
M  V30 1 1 1 2
M  V30 2 1 1 3
M  V30 3 1 1 4
M  V30 4 1 1 5
M  V30 5 1 6 7
M  V30 6 1 6 8
M  V30 7 1 6 9
M  V30 8 1 6 10
M  V30 9 1 11 12
M  V30 10 1 11 13
M  V30 11 1 11 14
M  V30 12 1 11 15
M  V30 13 1 16 17
M  V30 14 1 16 18
M  V30 15 1 16 19
M  V30 16 1 16 20
M  V30 17 1 21 22
M  V30 18 1 21 23
M  V30 19 1 21 24
M  V30 20 1 21 25
M  V30 21 1 26 27
M  V30 22 1 26 28
M  V30 23 1 26 29
M  V30 24 1 26 30
M  V30 25 1 31 32
M  V30 26 1 31 33
M  V30 27 1 31 34
M  V30 28 1 31 35
M  V30 29 1 36 37
M  V30 30 1 36 38
M  V30 31 1 36 39
M  V30 32 1 36 40
M  V30 33 1 41 42
M  V30 34 1 41 43
M  V30 35 1 41 44
M  V30 36 1 41 45
M  V30 37 1 46 47
M  V30 38 1 47 48
M  V30 39 1 49 50
M  V30 40 1 50 51
M  V30 41 1 52 53
M  V30 42 1 53 54
M  V30 43 1 55 56
M  V30 44 1 56 57
M  V30 45 1 58 59
M  V30 46 1 59 60
M  V30 47 1 61 62
M  V30 48 1 62 63
M  V30 49 1 64 65
M  V30 50 1 65 66
M  V30 51 1 67 68
M  V30 52 1 68 69
M  V30 53 1 70 71
M  V30 54 1 71 72
M  V30 55 1 73 74
M  V30 56 1 74 75
M  V30 57 1 76 77
M  V30 58 1 77 78
M  V30 59 1 79 80
M  V30 60 1 80 81
M  V30 61 1 82 83
M  V30 62 1 83 84
M  V30 63 1 85 86
M  V30 64 1 86 87
M  V30 65 1 88 89
M  V30 66 1 89 90
M  V30 67 1 91 92
M  V30 68 1 92 93
M  V30 69 1 94 95
M  V30 70 1 95 96
M  V30 71 1 97 98
M  V30 72 1 98 99
M  V30 73 1 2 73
M  V30 74 1 3 91
M  V30 75 1 4 67
M  V30 76 1 5 88
M  V30 77 1 7 46
M  V30 78 1 8 55
M  V30 79 1 9 64
M  V30 80 1 10 82
M  V30 81 1 12 58
M  V30 82 1 13 97
M  V30 83 1 14 85
M  V30 84 1 15 79
M  V30 85 1 17 87
M  V30 86 1 18 52
M  V30 87 1 19 49
M  V30 88 1 20 61
M  V30 89 1 22 48
M  V30 90 1 23 99
M  V30 91 1 24 51
M  V30 92 1 25 76
M  V30 93 1 27 54
M  V30 94 1 28 94
M  V30 95 1 29 69
M  V30 96 1 30 63
M  V30 97 1 32 75
M  V30 98 1 33 96
M  V30 99 1 34 81
M  V30 100 1 35 60
M  V30 101 1 37 78
M  V30 102 1 38 70
M  V30 103 1 39 66
M  V30 104 1 40 90
M  V30 105 1 42 57
M  V30 106 1 43 93
M  V30 107 1 44 72
M  V30 108 1 45 84
M  V30 END BOND
M  V30 END CTAB
M  END

$$$$
