
     RDKit          3D

  0  0  0  0  0  0  0  0  0  0999 V3000
M  V30 BEGIN CTAB
M  V30 COUNTS 99 108 0 0 0
M  V30 BEGIN ATOM
M  V30 1 Pd 0.5951 -6.7183 -1.2499 0
M  V30 2 Pb 1.3429 -7.0070 -1.8537 0
M  V30 3 Pb 0.1729 -6.1834 -1.9853 0
M  V30 4 Pb 0.9447 -7.2514 -0.4781 0
M  V30 5 Pb -0.1108 -6.3533 -0.6480 0
M  V30 6 Pd 3.6200 -5.3866 2.6794 0
M  V30 7 Pb 4.1929 -4.5751 2.5603 0
M  V30 8 Pb 4.4086 -5.9492 2.4465 0
M  V30 9 Pb 3.0639 -6.2140 2.6515 0
M  V30 10 Pb 2.8115 -4.8202 2.8444 0
M  V30 11 Pd 0.5022 1.6315 3.4222 0
M  V30 12 Pb 0.3224 0.6516 3.3355 0
M  V30 13 Pb 1.4684 1.3647 3.4653 0
M  V30 14 Pb -0.4688 1.8156 3.2662 0
M  V30 15 Pb 0.6629 2.6154 3.5659 0
M  V30 16 Pd -5.9615 6.6594 0.5579 0
M  V30 17 Pb -6.3429 6.8572 -0.3513 0
M  V30 18 Pb -6.8677 6.3302 0.8158 0
M  V30 19 Pb -5.5981 6.1903 1.3647 0
M  V30 20 Pb -5.0497 6.9471 0.2667 0
M  V30 21 Pd 1.8762 6.0874 0.6661 0
M  V30 22 Pb 2.2391 5.9603 -0.2629 0
M  V30 23 Pb 1.0010 6.4321 0.3270 0
M  V30 24 Pb 2.7672 5.8038 0.9973 0
M  V30 25 Pb 1.5320 6.0297 1.6024 0
M  V30 26 Pd 5.5455 0.6718 -1.3478 0
M  V30 27 Pb 5.8927 1.3843 -0.7519 0
M  V30 28 Pb 5.3499 1.3881 -2.0211 0
M  V30 29 Pb 5.5365 0.1094 -0.5241 0
M  V30 30 Pb 5.1614 -0.0403 -1.9384 0
M  V30 31 Pd 5.3586 -4.7956 -1.6017 0
M  V30 32 Pb 4.9894 -4.0603 -2.1690 0
M  V30 33 Pb 4.9687 -5.4917 -2.2071 0
M  V30 34 Pb 5.6373 -4.1267 -0.9108 0
M  V30 35 Pb 5.7396 -5.5134 -1.0229 0
M  V30 36 Pd -7.6136 2.9091 -1.6981 0
M  V30 37 Pb -8.1986 3.3207 -1.0020 0
M  V30 38 Pb -7.6989 3.7689 -2.2122 0
M  V30 39 Pb -7.3540 2.2172 -1.0221 0
M  V30 40 Pb -6.9859 2.5276 -2.3760 0
M  V30 41 Pd -3.9103 -0.9756 -1.5303 0
M  V30 42 Pb -3.5866 -1.6200 -2.2256 0
M  V30 43 Pb -4.1899 -0.3173 -2.2288 0
M  V30 44 Pb -3.6601 -1.6610 -0.8505 0
M  V30 45 Pb -4.0969 -0.3188 -0.7994 0
M  V30 46 Ag -1.1893 1.8870 3.0686 0
M  V30 47 Fe -2.7840 1.1154 1.4859 0
M  V30 48 Ag -4.1297 0.1606 -0.2231 0
M  V30 49 Ag 2.5632 5.7417 -0.9103 0
M  V30 50 Fe 3.8485 3.9578 -1.8283 0
M  V30 51 Ag 5.1091 2.0107 -2.3719 0
M  V30 52 Ag -0.2164 -5.7668 -2.4768 0
M  V30 53 Fe -1.7418 -3.9559 -2.6996 0
M  V30 54 Ag -3.2539 -2.1204 -2.6779 0
M  V30 55 Ag 2.1986 -4.3947 2.9296 0
M  V30 56 Fe 1.1916 -2.2514 3.1182 0
M  V30 57 Ag 0.2211 -0.0911 3.3048 0
M  V30 58 Ag 3.4460 5.5617 1.1698 0
M  V30 59 Fe 4.9496 3.8318 0.6022 0
M  V30 60 Ag 6.0456 1.9381 -0.2852 0
M  V30 61 Ag 2.1398 1.0250 3.4079 0
M  V30 62 Fe 3.8737 0.3606 1.9206 0
M  V30 63 Ag 5.4350 -0.1037 0.1875 0
M  V30 64 Ag -4.3696 7.1472 0.0237 0
M  V30 65 Fe -2.0063 6.9192 0.0686 0
M  V30 66 Ag 0.3608 6.7299 0.0742 0
M  V30 67 Ag -5.4443 5.6049 1.8027 0
M  V30 68 Fe -6.0464 3.4002 1.1943 0
M  V30 69 Ag -7.0568 1.9601 -0.3866 0
M  V30 70 Ag -0.6246 -6.0053 -0.2325 0
M  V30 71 Fe -2.0894 -4.1414 -0.1897 0
M  V30 72 Ag -3.4624 -2.2192 -0.3948 0
M  V30 73 Ba 4.6458 -4.0080 2.3684 0
M  V30 74 Ga 5.2567 -3.7604 1.0467 0
M  V30 75 Ba 5.7775 -3.6680 -0.3323 0
M  V30 76 Ba -6.4951 2.2537 -2.8720 0
M  V30 77 Ga -5.4556 1.2090 -2.8228 0
M  V30 78 Ba -4.4201 0.1613 -2.7580 0
M  V30 79 Ba 4.8596 -0.5525 -2.3987 0
M  V30 80 Ga 4.7955 -2.0245 -2.4839 0
M  V30 81 Ba 4.7226 -3.4952 -2.5826 0
M  V30 82 Ba 1.1398 -7.6255 0.1438 0
M  V30 83 Ga 1.9046 -7.2718 1.3541 0
M  V30 84 Ba 2.6864 -6.8479 2.5305 0
M  V30 85 Ba 1.9144 -7.1754 -2.3154 0
M  V30 86 Ga 3.2772 -6.6251 -2.4846 0
M  V30 87 Ba 4.6275 -6.0326 -2.6026 0
M  V30 88 Ba -6.6550 6.8610 -1.0418 0
M  V30 89 Ga -7.1973 5.7143 -1.8202 0
M  V30 90 Ba -7.7004 4.4781 -2.4788 0
M  V30 91 Ba 0.7152 3.3563 3.7142 0
M  V30 92 Ga 1.0151 4.6229 3.0080 0
M  V30 93 Ba 1.3175 5.8924 2.3081 0
M  V30 94 Ba -7.5380 6.0286 0.9528 0
M  V30 95 Ga -8.1426 4.8593 0.2969 0
M  V30 96 Ba -8.5778 3.6805 -0.4675 0
M  V30 97 Ba 4.9811 -6.3501 2.1863 0
M  V30 98 Ga 5.5643 -6.2600 0.8416 0
M  V30 99 Ba 6.0041 -6.0171 -0.5384 0
M  V30 END ATOM
M  V30 BEGIN BOND
M  V30 1 1 1 2
M  V30 2 1 1 3
M  V30 3 1 1 4
M  V30 4 1 1 5
M  V30 5 1 6 7
M  V30 6 1 6 8
M  V30 7 1 6 9
M  V30 8 1 6 10
M  V30 9 1 11 12
M  V30 10 1 11 13
M  V30 11 1 11 14
M  V30 12 1 11 15
M  V30 13 1 16 17
M  V30 14 1 16 18
M  V30 15 1 16 19
M  V30 16 1 16 20
M  V30 17 1 21 22
M  V30 18 1 21 23
M  V30 19 1 21 24
M  V30 20 1 21 25
M  V30 21 1 26 27
M  V30 22 1 26 28
M  V30 23 1 26 29
M  V30 24 1 26 30
M  V30 25 1 31 32
M  V30 26 1 31 33
M  V30 27 1 31 34
M  V30 28 1 31 35
M  V30 29 1 36 37
M  V30 30 1 36 38
M  V30 31 1 36 39
M  V30 32 1 36 40
M  V30 33 1 41 42
M  V30 34 1 41 43
M  V30 35 1 41 44
M  V30 36 1 41 45
M  V30 37 1 46 47
M  V30 38 1 47 48
M  V30 39 1 49 50
M  V30 40 1 50 51
M  V30 41 1 52 53
M  V30 42 1 53 54
M  V30 43 1 55 56
M  V30 44 1 56 57
M  V30 45 1 58 59
M  V30 46 1 59 60
M  V30 47 1 61 62
M  V30 48 1 62 63
M  V30 49 1 64 65
M  V30 50 1 65 66
M  V30 51 1 67 68
M  V30 52 1 68 69
M  V30 53 1 70 71
M  V30 54 1 71 72
M  V30 55 1 73 74
M  V30 56 1 74 75
M  V30 57 1 76 77
M  V30 58 1 77 78
M  V30 59 1 79 80
M  V30 60 1 80 81
M  V30 61 1 82 83
M  V30 62 1 83 84
M  V30 63 1 85 86
M  V30 64 1 86 87
M  V30 65 1 88 89
M  V30 66 1 89 90
M  V30 67 1 91 92
M  V30 68 1 92 93
M  V30 69 1 94 95
M  V30 70 1 95 96
M  V30 71 1 97 98
M  V30 72 1 98 99
M  V30 73 1 2 85
M  V30 74 1 3 52
M  V30 75 1 4 82
M  V30 76 1 5 70
M  V30 77 1 7 73
M  V30 78 1 8 97
M  V30 79 1 9 84
M  V30 80 1 10 55
M  V30 81 1 12 57
M  V30 82 1 13 61
M  V30 83 1 14 46
M  V30 84 1 15 91
M  V30 85 1 17 88
M  V30 86 1 18 94
M  V30 87 1 19 67
M  V30 88 1 20 64
M  V30 89 1 22 49
M  V30 90 1 23 66
M  V30 91 1 24 58
M  V30 92 1 25 93
M  V30 93 1 27 60
M  V30 94 1 28 51
M  V30 95 1 29 63
M  V30 96 1 30 79
M  V30 97 1 32 81
M  V30 98 1 33 87
M  V30 99 1 34 75
M  V30 100 1 35 99
M  V30 101 1 37 96
M  V30 102 1 38 90
M  V30 103 1 39 69
M  V30 104 1 40 76
M  V30 105 1 42 54
M  V30 106 1 43 78
M  V30 107 1 44 72
M  V30 108 1 45 48
M  V30 END BOND
M  V30 END CTAB
M  END

$$$$
