
     RDKit          3D

  0  0  0  0  0  0  0  0  0  0999 V3000
M  V30 BEGIN CTAB
M  V30 COUNTS 99 108 0 0 0
M  V30 BEGIN ATOM
M  V30 1 Pd -3.5241 2.1925 2.2593 0
M  V30 2 Pb -3.1667 1.8126 3.1154 0
M  V30 3 Pb -2.7954 2.8755 2.2671 0
M  V30 4 Pb -3.9083 2.6260 1.4406 0
M  V30 5 Pb -4.2455 1.4985 2.2602 0
M  V30 6 Pd 5.1659 1.5160 -0.8900 0
M  V30 7 Pb 5.2506 2.1329 -0.1092 0
M  V30 8 Pb 6.1534 1.5324 -1.0480 0
M  V30 9 Pb 5.0903 0.8526 -1.6364 0
M  V30 10 Pb 4.1942 1.4382 -0.6557 0
M  V30 11 Pd 7.4051 -2.5113 -0.4747 0
M  V30 12 Pb 7.7158 -2.5185 0.4756 0
M  V30 13 Pb 6.9651 -2.4004 -1.3638 0
M  V30 14 Pb 7.9889 -1.7312 -0.6955 0
M  V30 15 Pb 6.7384 -3.2053 -0.2109 0
M  V30 16 Pd -3.3276 -2.7794 0.8868 0
M  V30 17 Pb -3.8911 -3.0041 0.0905 0
M  V30 18 Pb -4.1131 -2.3060 1.2828 0
M  V30 19 Pb -2.5055 -3.1689 0.4656 0
M  V30 20 Pb -2.8133 -2.6075 1.7268 0
M  V30 21 Pd 1.0937 2.6139 4.9893 0
M  V30 22 Pb 1.9648 2.9943 4.6829 0
M  V30 23 Pb 1.5654 2.0708 5.6864 0
M  V30 24 Pb 0.2216 2.1823 5.2214 0
M  V30 25 Pb 0.6286 3.1684 4.2996 0
M  V30 26 Pd -4.1331 2.7210 -3.6929 0
M  V30 27 Pb -4.2714 2.9951 -2.7372 0
M  V30 28 Pb -5.1214 2.5698 -3.7824 0
M  V30 29 Pb -3.1353 2.8137 -3.6313 0
M  V30 30 Pb -4.0477 2.5339 -4.6721 0
M  V30 31 Pd 3.1950 -2.3032 5.1447 0
M  V30 32 Pb 3.2408 -2.9859 4.4171 0
M  V30 33 Pb 4.1953 -2.2800 5.1077 0
M  V30 34 Pb 3.1617 -1.5841 5.8381 0
M  V30 35 Pb 2.1968 -2.3021 5.1129 0
M  V30 36 Pd -5.9812 -1.0716 -5.9767 0
M  V30 37 Pb -5.1854 -1.6144 -6.2211 0
M  V30 38 Pb -5.6391 -0.3484 -6.5681 0
M  V30 39 Pb -6.6536 -0.4310 -5.6093 0
M  V30 40 Pb -6.2019 -1.7516 -5.2817 0
M  V30 41 Pd 0.1100 -0.5419 -2.3848 0
M  V30 42 Pb 0.5182 -0.0876 -1.5950 0
M  V30 43 Pb 0.1464 -1.4363 -1.9332 0
M  V30 44 Pb -0.0058 0.3648 -2.7995 0
M  V30 45 Pb -0.2598 -0.9983 -3.1918 0
M  V30 46 Ag 7.8120 -2.4974 1.2192 0
M  V30 47 Fe 6.5223 -2.3920 3.2117 0
M  V30 48 Ag 4.9350 -2.2903 4.9767 0
M  V30 49 Ag -4.3647 -3.1787 -0.4659 0
M  V30 50 Fe -5.3497 -2.7555 -2.5847 0
M  V30 51 Ag -6.2584 -2.2371 -4.7162 0
M  V30 52 Ag 5.2492 2.5516 0.5113 0
M  V30 53 Fe 4.0231 2.9972 2.4935 0
M  V30 54 Ag 2.6031 3.2404 4.3792 0
M  V30 55 Ag -4.5123 -1.9234 -6.2845 0
M  V30 56 Fe -2.4429 -1.7629 -5.1421 0
M  V30 57 Ag -0.5447 -1.3593 -3.7818 0
M  V30 58 Ag -2.4613 -2.5077 2.3815 0
M  V30 59 Fe -0.5002 -2.3925 3.7150 0
M  V30 60 Ag 1.4503 -2.2727 5.0634 0
M  V30 61 Ag 6.2049 -3.6449 0.0740 0
M  V30 62 Fe 4.6989 -3.7192 1.9054 0
M  V30 63 Ag 3.3551 -3.4509 3.8419 0
M  V30 64 Ba -2.3827 2.8615 -3.6376 0
M  V30 65 Ga -1.2504 1.9535 -3.3442 0
M  V30 66 Ba -0.0995 1.0669 -3.0582 0
M  V30 67 Ba 5.0992 0.3210 -2.1672 0
M  V30 68 Ga 5.8060 -0.9735 -2.1640 0
M  V30 69 Ba 6.5761 -2.2168 -1.9761 0
M  V30 70 Ba -2.2423 3.3801 2.2804 0
M  V30 71 Ga -0.9775 3.4909 3.0289 0
M  V30 72 Ba 0.2846 3.5899 3.7838 0
M  V30 73 Ba -2.9178 1.5553 3.7773 0
M  V30 74 Ga -1.6772 1.6937 4.5673 0
M  V30 75 Ba -0.4325 1.8371 5.3498 0
M  V30 76 Ba -4.0438 2.4138 -5.4131 0
M  V30 77 Ga -4.6491 1.3538 -6.2351 0
M  V30 78 Ba -5.3030 0.2218 -6.9099 0
M  V30 79 Ba 3.4919 1.3888 -0.3890 0
M  V30 80 Ga 2.1741 0.8236 -0.7393 0
M  V30 81 Ba 0.8296 0.2860 -1.0261 0
M  V30 82 Ba -5.8524 2.4145 -3.8816 0
M  V30 83 Ga -6.5238 1.2914 -4.5688 0
M  V30 84 Ba -7.0542 0.1141 -5.2870 0
M  V30 85 Ba 1.9251 1.6719 6.2122 0
M  V30 86 Ga 2.5221 0.3241 6.2842 0
M  V30 87 Ba 3.1134 -1.0271 6.3374 0
M  V30 88 Ba -1.8623 -3.4130 0.1603 0
M  V30 89 Ga -0.8580 -2.7818 -0.7232 0
M  V30 90 Ba 0.1221 -2.1146 -1.6074 0
M  V30 91 Ba 6.8937 1.4594 -1.1439 0
M  V30 92 Ga 7.7020 0.2324 -1.0260 0
M  V30 93 Ba 8.3348 -1.0890 -0.8649 0
M  V30 94 Ba -4.2131 3.0135 0.8720 0
M  V30 95 Ga -4.2757 3.0615 -0.6048 0
M  V30 96 Ba -4.4544 3.2668 -2.0583 0
M  V30 97 Ba -4.7690 0.9602 2.2766 0
M  V30 98 Ga -4.7577 -0.4732 1.9280 0
M  V30 99 Ba -4.6779 -1.8994 1.5601 0
M  V30 END ATOM
M  V30 BEGIN BOND
M  V30 1 1 1 2
M  V30 2 1 1 3
M  V30 3 1 1 4
M  V30 4 1 1 5
M  V30 5 1 6 7
M  V30 6 1 6 8
M  V30 7 1 6 9
M  V30 8 1 6 10
M  V30 9 1 11 12
M  V30 10 1 11 13
M  V30 11 1 11 14
M  V30 12 1 11 15
M  V30 13 1 16 17
M  V30 14 1 16 18
M  V30 15 1 16 19
M  V30 16 1 16 20
M  V30 17 1 21 22
M  V30 18 1 21 23
M  V30 19 1 21 24
M  V30 20 1 21 25
M  V30 21 1 26 27
M  V30 22 1 26 28
M  V30 23 1 26 29
M  V30 24 1 26 30
M  V30 25 1 31 32
M  V30 26 1 31 33
M  V30 27 1 31 34
M  V30 28 1 31 35
M  V30 29 1 36 37
M  V30 30 1 36 38
M  V30 31 1 36 39
M  V30 32 1 36 40
M  V30 33 1 41 42
M  V30 34 1 41 43
M  V30 35 1 41 44
M  V30 36 1 41 45
M  V30 37 1 46 47
M  V30 38 1 47 48
M  V30 39 1 49 50
M  V30 40 1 50 51
M  V30 41 1 52 53
M  V30 42 1 53 54
M  V30 43 1 55 56
M  V30 44 1 56 57
M  V30 45 1 58 59
M  V30 46 1 59 60
M  V30 47 1 61 62
M  V30 48 1 62 63
M  V30 49 1 64 65
M  V30 50 1 65 66
M  V30 51 1 67 68
M  V30 52 1 68 69
M  V30 53 1 70 71
M  V30 54 1 71 72
M  V30 55 1 73 74
M  V30 56 1 74 75
M  V30 57 1 76 77
M  V30 58 1 77 78
M  V30 59 1 79 80
M  V30 60 1 80 81
M  V30 61 1 82 83
M  V30 62 1 83 84
M  V30 63 1 85 86
M  V30 64 1 86 87
M  V30 65 1 88 89
M  V30 66 1 89 90
M  V30 67 1 91 92
M  V30 68 1 92 93
M  V30 69 1 94 95
M  V30 70 1 95 96
M  V30 71 1 97 98
M  V30 72 1 98 99
M  V30 73 1 2 73
M  V30 74 1 3 70
M  V30 75 1 4 94
M  V30 76 1 5 97
M  V30 77 1 7 52
M  V30 78 1 8 91
M  V30 79 1 9 67
M  V30 80 1 10 79
M  V30 81 1 12 46
M  V30 82 1 13 69
M  V30 83 1 14 93
M  V30 84 1 15 61
M  V30 85 1 17 49
M  V30 86 1 18 99
M  V30 87 1 19 88
M  V30 88 1 20 58
M  V30 89 1 22 54
M  V30 90 1 23 85
M  V30 91 1 24 75
M  V30 92 1 25 72
M  V30 93 1 27 96
M  V30 94 1 28 82
M  V30 95 1 29 64
M  V30 96 1 30 76
M  V30 97 1 32 63
M  V30 98 1 33 48
M  V30 99 1 34 87
M  V30 100 1 35 60
M  V30 101 1 37 55
M  V30 102 1 38 78
M  V30 103 1 39 84
M  V30 104 1 40 51
M  V30 105 1 42 81
M  V30 106 1 43 90
M  V30 107 1 44 66
M  V30 108 1 45 57
M  V30 END BOND
M  V30 END CTAB
M  END

$$$$
