
     RDKit          3D

  0  0  0  0  0  0  0  0  0  0999 V3000
M  V30 BEGIN CTAB
M  V30 COUNTS 99 108 0 0 0
M  V30 BEGIN ATOM
M  V30 1 Pd 1.6559 -0.5561 -1.4379 0
M  V30 2 Pb 2.4362 -0.1647 -0.9581 0
M  V30 3 Pb 1.3437 -0.9774 -0.5863 0
M  V30 4 Pb 0.7763 -0.7559 -1.8598 0
M  V30 5 Pb 1.9688 -0.1353 -2.2894 0
M  V30 6 Pd -6.3968 4.6154 4.1320 0
M  V30 7 Pb -6.9881 4.7141 4.9323 0
M  V30 8 Pb -5.8091 4.5846 3.3235 0
M  V30 9 Pb -5.5917 4.7650 4.7065 0
M  V30 10 Pb -7.1733 4.8714 3.5370 0
M  V30 11 Pd -7.0678 9.3930 3.0588 0
M  V30 12 Pb -7.7118 8.7165 2.6711 0
M  V30 13 Pb -7.6573 9.4802 3.8617 0
M  V30 14 Pb -6.2877 9.7157 3.5954 0
M  V30 15 Pb -6.4631 9.2470 2.2754 0
M  V30 16 Pd 4.1362 -6.8786 -5.1163 0
M  V30 17 Pb 3.3966 -6.8209 -4.4427 0
M  V30 18 Pb 4.8253 -6.6420 -4.4314 0
M  V30 19 Pb 3.4472 -7.1007 -5.7979 0
M  V30 20 Pb 4.7093 -6.5347 -5.8628 0
M  V30 21 Pd 6.6536 -7.0707 2.2409 0
M  V30 22 Pb 6.2357 -7.9399 1.9720 0
M  V30 23 Pb 6.7836 -6.7927 1.2891 0
M  V30 24 Pb 6.7810 -6.1307 2.5774 0
M  V30 25 Pb 6.5119 -7.3416 3.1897 0
M  V30 26 Pd 1.3176 -1.8288 -6.7036 0
M  V30 27 Pb 2.0954 -1.8519 -7.3349 0
M  V30 28 Pb 1.7196 -1.0769 -6.1810 0
M  V30 29 Pb 0.7829 -2.1379 -5.9145 0
M  V30 30 Pb 0.9266 -2.5851 -7.2171 0
M  V30 31 Pd 2.9643 -5.2936 4.5853 0
M  V30 32 Pb 3.7512 -4.6714 4.5030 0
M  V30 33 Pb 3.5729 -5.9262 5.0576 0
M  V30 34 Pb 2.3364 -6.0616 4.4497 0
M  V30 35 Pb 2.3606 -4.6618 4.0992 0
M  V30 36 Pd -3.6401 4.1605 -1.5153 0
M  V30 37 Pb -3.8020 5.1075 -1.2323 0
M  V30 38 Pb -3.4858 3.2198 -1.8185 0
M  V30 39 Pb -2.8428 4.4489 -2.0573 0
M  V30 40 Pb -4.2087 3.8116 -0.7677 0
M  V30 41 Pd 0.4501 3.4637 0.5764 0
M  V30 42 Pb 1.3860 3.1033 0.6140 0
M  V30 43 Pb 0.5484 3.8642 -0.3398 0
M  V30 44 Pb -0.4955 3.7843 0.5337 0
M  V30 45 Pb 0.1636 3.0293 1.4316 0
M  V30 46 Ag 2.7904 -6.5473 -4.0850 0
M  V30 47 Fe 1.4617 -4.6033 -4.4575 0
M  V30 48 Ag 0.5721 -2.5726 -5.3342 0
M  V30 49 Ag -5.0663 5.1792 5.0434 0
M  V30 50 Fe -4.9337 7.5401 4.8561 0
M  V30 51 Ag -5.6930 9.6352 4.0435 0
M  V30 52 Ag -5.3780 4.6036 2.7100 0
M  V30 53 Fe -3.2931 4.2997 1.6145 0
M  V30 54 Ag -1.2153 3.9917 0.5067 0
M  V30 55 Ag -7.4379 4.9921 5.4550 0
M  V30 56 Fe -8.1560 7.2326 5.5266 0
M  V30 57 Ag -8.0476 9.3374 4.4783 0
M  V30 58 Ag -4.3535 3.5023 -0.1019 0
M  V30 59 Fe -2.6510 2.8784 1.4190 0
M  V30 60 Ag -0.3407 2.7701 1.9177 0
M  V30 61 Ag 5.3422 -6.4654 -3.9174 0
M  V30 62 Fe 6.1120 -6.5242 -1.6713 0
M  V30 63 Ag 6.8802 -6.5839 0.5752 0
M  V30 64 Ag -6.0050 9.1006 1.6995 0
M  V30 65 Fe -4.9594 7.4695 0.3238 0
M  V30 66 Ag -3.9223 5.8245 -1.0415 0
M  V30 67 Ag 0.0764 -0.7500 -2.1174 0
M  V30 68 Fe -1.7422 0.7724 -2.1675 0
M  V30 69 Ag -3.3431 2.5194 -2.0459 0
M  V30 70 Ag 5.6913 -8.4506 1.9320 0
M  V30 71 Fe 3.5746 -8.1146 2.9356 0
M  V30 72 Ag 2.1257 -6.7331 4.1976 0
M  V30 73 Ag 2.9052 -7.1198 -6.3026 0
M  V30 74 Fe 1.5484 -5.4214 -7.2141 0
M  V30 75 Ag 0.7345 -3.2311 -7.5248 0
M  V30 76 Ag 1.1105 -1.2937 0.0524 0
M  V30 77 Fe 1.5076 -2.7403 1.8937 0
M  V30 78 Ag 1.9090 -4.1879 3.7333 0
M  V30 79 Ag 4.9448 -6.0776 -6.4158 0
M  V30 80 Fe 4.0683 -4.0351 -7.2781 0
M  V30 81 Ag 2.7262 -2.1032 -7.6653 0
M  V30 82 Ba 2.9236 0.2487 -0.5726 0
M  V30 83 Ga 2.5882 1.5360 0.0643 0
M  V30 84 Ba 2.0739 2.7966 0.6327 0
M  V30 85 Ba -2.1644 4.6155 -2.3529 0
M  V30 86 Ga -0.8149 4.4190 -1.7555 0
M  V30 87 Ba 0.4598 4.1625 -1.0304 0
M  V30 88 Ba 6.3537 -7.5064 3.9001 0
M  V30 89 Ga 5.2350 -7.0062 4.7089 0
M  V30 90 Ba 4.0631 -6.4032 5.3562 0
M  V30 91 Ba 2.2039 0.1803 -2.9279 0
M  V30 92 Ga 2.1122 -0.1665 -4.3586 0
M  V30 93 Ba 2.0209 -0.5125 -5.7896 0
M  V30 94 Ba 6.7363 -5.4383 2.8855 0
M  V30 95 Ga 5.6076 -4.8174 3.6351 0
M  V30 96 Ba 4.4083 -4.3171 4.3651 0
M  V30 97 Ba -7.7087 5.2074 3.1059 0
M  V30 98 Ga -7.9430 6.6459 2.7578 0
M  V30 99 Ba -8.1139 8.1031 2.4534 0
M  V30 END ATOM
M  V30 BEGIN BOND
M  V30 1 1 1 2
M  V30 2 1 1 3
M  V30 3 1 1 4
M  V30 4 1 1 5
M  V30 5 1 6 7
M  V30 6 1 6 8
M  V30 7 1 6 9
M  V30 8 1 6 10
M  V30 9 1 11 12
M  V30 10 1 11 13
M  V30 11 1 11 14
M  V30 12 1 11 15
M  V30 13 1 16 17
M  V30 14 1 16 18
M  V30 15 1 16 19
M  V30 16 1 16 20
M  V30 17 1 21 22
M  V30 18 1 21 23
M  V30 19 1 21 24
M  V30 20 1 21 25
M  V30 21 1 26 27
M  V30 22 1 26 28
M  V30 23 1 26 29
M  V30 24 1 26 30
M  V30 25 1 31 32
M  V30 26 1 31 33
M  V30 27 1 31 34
M  V30 28 1 31 35
M  V30 29 1 36 37
M  V30 30 1 36 38
M  V30 31 1 36 39
M  V30 32 1 36 40
M  V30 33 1 41 42
M  V30 34 1 41 43
M  V30 35 1 41 44
M  V30 36 1 41 45
M  V30 37 1 46 47
M  V30 38 1 47 48
M  V30 39 1 49 50
M  V30 40 1 50 51
M  V30 41 1 52 53
M  V30 42 1 53 54
M  V30 43 1 55 56
M  V30 44 1 56 57
M  V30 45 1 58 59
M  V30 46 1 59 60
M  V30 47 1 61 62
M  V30 48 1 62 63
M  V30 49 1 64 65
M  V30 50 1 65 66
M  V30 51 1 67 68
M  V30 52 1 68 69
M  V30 53 1 70 71
M  V30 54 1 71 72
M  V30 55 1 73 74
M  V30 56 1 74 75
M  V30 57 1 76 77
M  V30 58 1 77 78
M  V30 59 1 79 80
M  V30 60 1 80 81
M  V30 61 1 82 83
M  V30 62 1 83 84
M  V30 63 1 85 86
M  V30 64 1 86 87
M  V30 65 1 88 89
M  V30 66 1 89 90
M  V30 67 1 91 92
M  V30 68 1 92 93
M  V30 69 1 94 95
M  V30 70 1 95 96
M  V30 71 1 97 98
M  V30 72 1 98 99
M  V30 73 1 2 82
M  V30 74 1 3 76
M  V30 75 1 4 67
M  V30 76 1 5 91
M  V30 77 1 7 55
M  V30 78 1 8 52
M  V30 79 1 9 49
M  V30 80 1 10 97
M  V30 81 1 12 99
M  V30 82 1 13 57
M  V30 83 1 14 51
M  V30 84 1 15 64
M  V30 85 1 17 46
M  V30 86 1 18 61
M  V30 87 1 19 73
M  V30 88 1 20 79
M  V30 89 1 22 70
M  V30 90 1 23 63
M  V30 91 1 24 94
M  V30 92 1 25 88
M  V30 93 1 27 81
M  V30 94 1 28 93
M  V30 95 1 29 48
M  V30 96 1 30 75
M  V30 97 1 32 96
M  V30 98 1 33 90
M  V30 99 1 34 72
M  V30 100 1 35 78
M  V30 101 1 37 66
M  V30 102 1 38 69
M  V30 103 1 39 85
M  V30 104 1 40 58
M  V30 105 1 42 84
M  V30 106 1 43 87
M  V30 107 1 44 54
M  V30 108 1 45 60
M  V30 END BOND
M  V30 END CTAB
M  END

$$$$
