
     RDKit          3D

  0  0  0  0  0  0  0  0  0  0999 V3000
M  V30 BEGIN CTAB
M  V30 COUNTS 99 108 0 0 0
M  V30 BEGIN ATOM
M  V30 1 Pd -1.7747 -2.8683 2.1412 0
M  V30 2 Pb -2.0543 -3.8034 1.9295 0
M  V30 3 Pb -2.6241 -2.3676 1.9815 0
M  V30 4 Pb -2.4256 -2.8053 2.8932 0
M  V30 5 Pb -0.8416 -3.1155 1.8816 0
M  V30 6 Pd -2.9357 -0.1890 -3.3256 0
M  V30 7 Pb -3.5951 0.3445 -3.8571 0
M  V30 8 Pb -2.2295 0.1212 -3.9641 0
M  V30 9 Pb -2.4622 -1.0622 -3.1986 0
M  V30 10 Pb -3.1336 0.7649 -3.0692 0
M  V30 11 Pd 2.9477 -0.4850 4.7381 0
M  V30 12 Pb 3.3842 -1.1084 4.0455 0
M  V30 13 Pb 2.8417 0.2414 4.0621 0
M  V30 14 Pb 3.0094 -1.2134 5.4102 0
M  V30 15 Pb 2.5544 0.1366 5.4258 0
M  V30 16 Pd -2.0000 4.5982 0.1315 0
M  V30 17 Pb -2.6764 5.0932 -0.4162 0
M  V30 18 Pb -1.3391 4.6243 0.8835 0
M  V30 19 Pb -1.3001 4.9320 -0.5014 0
M  V30 20 Pb -2.4755 4.1343 -0.6261 0
M  V30 21 Pd -1.4474 2.6424 5.2478 0
M  V30 22 Pb -2.1935 2.5767 4.5838 0
M  V30 23 Pb -1.9427 1.9329 5.7422 0
M  V30 24 Pb -0.9477 3.2941 4.6780 0
M  V30 25 Pb -0.6547 2.5490 5.8533 0
M  V30 26 Pd -2.3378 4.4539 -4.7546 0
M  V30 27 Pb -3.1403 3.9543 -5.0708 0
M  V30 28 Pb -2.9237 5.0827 -4.2490 0
M  V30 29 Pb -1.5417 4.8860 -4.3367 0
M  V30 30 Pb -1.7599 3.7463 -5.1564 0
M  V30 31 Pd 2.5164 -0.4940 -0.5048 0
M  V30 32 Pb 2.1808 0.0279 -1.3005 0
M  V30 33 Pb 3.1936 0.0592 -0.9899 0
M  V30 34 Pb 2.4157 0.2565 0.1429 0
M  V30 35 Pb 2.3152 -1.1955 0.1810 0
M  V30 36 Pd 3.3377 -5.6550 1.6411 0
M  V30 37 Pb 3.4245 -5.5934 0.6409 0
M  V30 38 Pb 3.8113 -4.7679 1.8196 0
M  V30 39 Pb 3.2760 -5.7853 2.6236 0
M  V30 40 Pb 2.6731 -6.3879 1.5045 0
M  V30 41 Pd 1.7496 -2.5229 -4.9374 0
M  V30 42 Pb 2.1695 -3.4134 -4.7768 0
M  V30 43 Pb 0.9277 -2.8404 -4.4645 0
M  V30 44 Pb 1.4483 -1.5744 -4.8064 0
M  V30 45 Pb 2.5858 -2.1545 -5.3435 0
M  V30 46 Ag -3.1294 -1.8157 1.9470 0
M  V30 47 Fe -3.2028 0.3607 2.8939 0
M  V30 48 Ag -2.7237 2.3474 4.1040 0
M  V30 49 Ag 3.4669 -5.6393 -0.1129 0
M  V30 50 Fe 3.0162 -4.8875 -2.3250 0
M  V30 51 Ag 2.5049 -4.0130 -4.4777 0
M  V30 52 Ag -2.7929 -2.6360 3.5191 0
M  V30 53 Fe -2.7905 -0.7748 4.9809 0
M  V30 54 Ag -2.3380 1.3364 5.9497 0
M  V30 55 Ag 3.6899 0.3293 -1.4752 0
M  V30 56 Fe 3.9902 -0.3453 -3.7108 0
M  V30 57 Ag 3.1897 -1.7323 -5.4348 0
M  V30 58 Ag -2.0414 -4.5351 1.7798 0
M  V30 59 Fe -0.2136 -6.0202 1.5240 0
M  V30 60 Ag 2.0332 -6.7645 1.4228 0
M  V30 61 Ag 3.0399 -1.8527 5.7797 0
M  V30 62 Fe 3.1469 -4.0646 4.9790 0
M  V30 63 Ag 3.2486 -5.7757 3.3635 0
M  V30 64 Ba 2.7240 0.7884 3.5654 0
M  V30 65 Ga 2.5491 0.8241 2.1053 0
M  V30 66 Ba 2.3818 0.8087 0.6440 0
M  V30 67 Ba -0.8461 4.6964 1.4463 0
M  V30 68 Ga -0.7129 4.2169 2.8359 0
M  V30 69 Ba -0.5582 3.7494 4.2274 0
M  V30 70 Ba -0.8027 5.1886 -1.0020 0
M  V30 71 Ga -0.8273 5.2128 -2.4754 0
M  V30 72 Ba -0.9762 5.1729 -3.9409 0
M  V30 73 Ba -4.0607 0.7550 -4.2796 0
M  V30 74 Ga -3.9542 2.1311 -4.7932 0
M  V30 75 Ba -3.7214 3.5158 -5.2366 0
M  V30 76 Ba -3.1513 5.4777 -0.8532 0
M  V30 77 Ga -3.2986 5.5361 -2.3181 0
M  V30 78 Ba -3.3415 5.4991 -3.7902 0
M  V30 79 Ba 1.8938 0.3401 -1.9312 0
M  V30 80 Ga 1.5822 -0.2180 -3.2749 0
M  V30 81 Ba 1.3077 -0.8646 -4.5865 0
M  V30 82 Ba -3.3300 1.4815 -2.9246 0
M  V30 83 Ga -3.0361 2.6186 -2.0195 0
M  V30 84 Ba -2.8673 3.8474 -1.2070 0
M  V30 85 Ba -2.1423 -1.7388 -3.1304 0
M  V30 86 Ga -0.9060 -2.3910 -3.6052 0
M  V30 87 Ba 0.3260 -3.0568 -4.0721 0
M  V30 88 Ba -1.7260 0.3874 -4.4539 0
M  V30 89 Ga -1.4917 1.7514 -4.9626 0
M  V30 90 Ba -1.3617 3.1570 -5.3881 0
M  V30 91 Ba -0.1080 -3.2433 1.7878 0
M  V30 92 Ga 1.0238 -2.5093 1.1850 0
M  V30 93 Ba 2.1843 -1.8076 0.5987 0
M  V30 94 Ba 3.7845 -1.5338 3.5317 0
M  V30 95 Ga 3.8776 -2.8380 2.7862 0
M  V30 96 Ba 4.1230 -4.0761 1.9656 0
M  V30 97 Ba 2.2898 0.6225 5.9425 0
M  V30 98 Ga 1.1204 1.5177 6.1067 0
M  V30 99 Ba -0.0474 2.4139 6.2769 0
M  V30 END ATOM
M  V30 BEGIN BOND
M  V30 1 1 1 2
M  V30 2 1 1 3
M  V30 3 1 1 4
M  V30 4 1 1 5
M  V30 5 1 6 7
M  V30 6 1 6 8
M  V30 7 1 6 9
M  V30 8 1 6 10
M  V30 9 1 11 12
M  V30 10 1 11 13
M  V30 11 1 11 14
M  V30 12 1 11 15
M  V30 13 1 16 17
M  V30 14 1 16 18
M  V30 15 1 16 19
M  V30 16 1 16 20
M  V30 17 1 21 22
M  V30 18 1 21 23
M  V30 19 1 21 24
M  V30 20 1 21 25
M  V30 21 1 26 27
M  V30 22 1 26 28
M  V30 23 1 26 29
M  V30 24 1 26 30
M  V30 25 1 31 32
M  V30 26 1 31 33
M  V30 27 1 31 34
M  V30 28 1 31 35
M  V30 29 1 36 37
M  V30 30 1 36 38
M  V30 31 1 36 39
M  V30 32 1 36 40
M  V30 33 1 41 42
M  V30 34 1 41 43
M  V30 35 1 41 44
M  V30 36 1 41 45
M  V30 37 1 46 47
M  V30 38 1 47 48
M  V30 39 1 49 50
M  V30 40 1 50 51
M  V30 41 1 52 53
M  V30 42 1 53 54
M  V30 43 1 55 56
M  V30 44 1 56 57
M  V30 45 1 58 59
M  V30 46 1 59 60
M  V30 47 1 61 62
M  V30 48 1 62 63
M  V30 49 1 64 65
M  V30 50 1 65 66
M  V30 51 1 67 68
M  V30 52 1 68 69
M  V30 53 1 70 71
M  V30 54 1 71 72
M  V30 55 1 73 74
M  V30 56 1 74 75
M  V30 57 1 76 77
M  V30 58 1 77 78
M  V30 59 1 79 80
M  V30 60 1 80 81
M  V30 61 1 82 83
M  V30 62 1 83 84
M  V30 63 1 85 86
M  V30 64 1 86 87
M  V30 65 1 88 89
M  V30 66 1 89 90
M  V30 67 1 91 92
M  V30 68 1 92 93
M  V30 69 1 94 95
M  V30 70 1 95 96
M  V30 71 1 97 98
M  V30 72 1 98 99
M  V30 73 1 2 58
M  V30 74 1 3 46
M  V30 75 1 4 52
M  V30 76 1 5 91
M  V30 77 1 7 73
M  V30 78 1 8 88
M  V30 79 1 9 85
M  V30 80 1 10 82
M  V30 81 1 12 94
M  V30 82 1 13 64
M  V30 83 1 14 61
M  V30 84 1 15 97
M  V30 85 1 17 76
M  V30 86 1 18 67
M  V30 87 1 19 70
M  V30 88 1 20 84
M  V30 89 1 22 48
M  V30 90 1 23 54
M  V30 91 1 24 69
M  V30 92 1 25 99
M  V30 93 1 27 75
M  V30 94 1 28 78
M  V30 95 1 29 72
M  V30 96 1 30 90
M  V30 97 1 32 79
M  V30 98 1 33 55
M  V30 99 1 34 66
M  V30 100 1 35 93
M  V30 101 1 37 49
M  V30 102 1 38 96
M  V30 103 1 39 63
M  V30 104 1 40 60
M  V30 105 1 42 51
M  V30 106 1 43 87
M  V30 107 1 44 81
M  V30 108 1 45 57
M  V30 END BOND
M  V30 END CTAB
M  END

$$$$
