
     RDKit          3D

  0  0  0  0  0  0  0  0  0  0999 V3000
M  V30 BEGIN CTAB
M  V30 COUNTS 99 108 0 0 0
M  V30 BEGIN ATOM
M  V30 1 Pd -4.0979 0.8349 -2.3548 0
M  V30 2 Pb -4.4903 0.1094 -1.7836 0
M  V30 3 Pb -3.6972 1.5473 -2.9321 0
M  V30 4 Pb -4.2409 1.5212 -1.6417 0
M  V30 5 Pb -3.9591 0.1702 -3.0881 0
M  V30 6 Pd 5.2497 3.8739 -4.8317 0
M  V30 7 Pb 4.7213 3.8984 -3.9849 0
M  V30 8 Pb 4.7100 4.6321 -5.2203 0
M  V30 9 Pb 5.5322 2.9553 -4.5723 0
M  V30 10 Pb 5.7569 3.8045 -5.6874 0
M  V30 11 Pd -0.2025 -5.9705 5.2980 0
M  V30 12 Pb -1.0948 -6.1040 4.8284 0
M  V30 13 Pb 0.2784 -5.9012 4.4255 0
M  V30 14 Pb 0.6544 -5.7198 5.7465 0
M  V30 15 Pb -0.6723 -6.0006 6.1738 0
M  V30 16 Pd 3.5045 0.2488 5.4100 0
M  V30 17 Pb 3.6576 -0.6626 5.7921 0
M  V30 18 Pb 3.2643 1.1332 5.0085 0
M  V30 19 Pb 4.1675 0.0689 4.6826 0
M  V30 20 Pb 2.7918 0.4264 6.0881 0
M  V30 21 Pd 2.7146 -0.9839 0.3356 0
M  V30 22 Pb 2.7498 -0.0220 0.0635 0
M  V30 23 Pb 2.6593 -1.9454 0.6021 0
M  V30 24 Pb 3.5533 -0.8627 0.8695 0
M  V30 25 Pb 1.8617 -1.1160 -0.1693 0
M  V30 26 Pd -2.8752 3.3602 4.7570 0
M  V30 27 Pb -1.9718 3.6963 4.4891 0
M  V30 28 Pb -3.7453 2.9276 4.9881 0
M  V30 29 Pb -3.2787 3.6482 3.8910 0
M  V30 30 Pb -2.4358 2.9904 5.5746 0
M  V30 31 Pd -5.3493 -3.4297 4.2384 0
M  V30 32 Pb -5.4202 -3.2137 3.2615 0
M  V30 33 Pb -5.7848 -2.5602 4.4658 0
M  V30 34 Pb -5.3064 -3.6505 5.2070 0
M  V30 35 Pb -4.8058 -4.2668 4.0449 0
M  V30 36 Pd 0.2418 -1.0992 -4.8947 0
M  V30 37 Pb 0.1340 -1.2631 -3.9136 0
M  V30 38 Pb 0.2816 -0.8969 -5.8767 0
M  V30 39 Pb 1.2322 -0.9874 -4.7744 0
M  V30 40 Pb -0.7430 -1.2356 -4.9964 0
M  V30 41 Pd 0.9298 3.3033 -7.8784 0
M  V30 42 Pb 1.4089 4.1266 -7.5285 0
M  V30 43 Pb 0.2061 3.4245 -7.1974 0
M  V30 44 Pb 0.5746 2.4030 -8.1300 0
M  V30 45 Pb 1.6395 3.2032 -8.5715 0
M  V30 46 Ag 4.3335 3.8401 -3.3473 0
M  V30 47 Fe 3.5265 2.3224 -1.7096 0
M  V30 48 Ag 2.7810 0.6975 -0.1471 0
M  V30 49 Ag -4.7824 -0.4624 -1.3897 0
M  V30 50 Fe -5.1110 -1.7231 0.6002 0
M  V30 51 Ag -5.5058 -3.0559 2.5302 0
M  V30 52 Ag 2.9827 1.7745 4.7389 0
M  V30 53 Fe 0.9346 2.9450 4.4579 0
M  V30 54 Ag -1.2569 3.8518 4.3216 0
M  V30 55 Ag -1.1384 -5.9336 6.7447 0
M  V30 56 Fe -3.2833 -4.9646 6.8192 0
M  V30 57 Ag -5.1578 -3.8773 5.8965 0
M  V30 58 Ag 5.9546 3.7190 -6.3966 0
M  V30 59 Fe 4.4815 3.3846 -8.1999 0
M  V30 60 Ag 2.2673 3.1663 -8.9654 0
M  V30 61 Ag 2.2108 0.6032 6.5274 0
M  V30 62 Fe 0.0658 1.6200 6.4900 0
M  V30 63 Ag -2.0246 2.6824 6.1196 0
M  V30 64 Ag 1.2887 -5.4423 6.0329 0
M  V30 65 Fe 2.5973 -3.4633 6.1269 0
M  V30 66 Ag 3.7023 -1.3628 6.0571 0
M  V30 67 Ag 5.5292 2.2201 -4.4422 0
M  V30 68 Fe 3.8589 0.5317 -4.5007 0
M  V30 69 Ag 1.9711 -0.9042 -4.6496 0
M  V30 70 Ag -4.3334 2.0655 -1.1337 0
M  V30 71 Fe -3.9792 2.9619 1.0358 0
M  V30 72 Ag -3.5873 3.7922 3.2251 0
M  V30 73 Ag -3.3963 2.0852 -3.3608 0
M  V30 74 Fe -1.8586 2.7864 -5.0308 0
M  V30 75 Ag -0.3403 3.5412 -6.6953 0
M  V30 76 Ag -4.3759 2.5400 5.1001 0
M  V30 77 Fe -5.3319 0.3748 4.9262 0
M  V30 78 Ag -6.0264 -1.8789 4.6604 0
M  V30 79 Ag 0.6758 -5.8087 3.7978 0
M  V30 80 Fe 1.6418 -4.2747 2.2652 0
M  V30 81 Ag 2.5707 -2.6660 0.7873 0
M  V30 82 Ba 1.2070 -1.2553 -0.5076 0
M  V30 83 Ga 0.6445 -1.2978 -1.8708 0
M  V30 84 Ba -0.0185 -1.3713 -3.1867 0
M  V30 85 Ba 4.6374 -0.0733 4.1149 0
M  V30 86 Ga 4.4244 -0.4208 2.6957 0
M  V30 87 Ba 4.1740 -0.7666 1.2822 0
M  V30 88 Ba 4.2307 5.1187 -5.5562 0
M  V30 89 Ga 3.0161 4.9231 -6.4036 0
M  V30 90 Ba 1.8020 4.7215 -7.2504 0
M  V30 91 Ba -1.7640 -6.2033 4.4668 0
M  V30 92 Ga -3.0626 -5.5020 4.2209 0
M  V30 93 Ba -4.3961 -4.9003 3.9074 0
M  V30 94 Ba -3.8537 -0.3168 -3.6478 0
M  V30 95 Ga -2.6709 -0.8357 -4.3580 0
M  V30 96 Ba -1.4810 -1.3479 -5.0614 0
M  V30 97 Ba 0.2252 -0.7405 -6.6120 0
M  V30 98 Ga 0.3055 0.4723 -7.4541 0
M  V30 99 Ba 0.3913 1.6917 -8.2857 0
M  V30 END ATOM
M  V30 BEGIN BOND
M  V30 1 1 1 2
M  V30 2 1 1 3
M  V30 3 1 1 4
M  V30 4 1 1 5
M  V30 5 1 6 7
M  V30 6 1 6 8
M  V30 7 1 6 9
M  V30 8 1 6 10
M  V30 9 1 11 12
M  V30 10 1 11 13
M  V30 11 1 11 14
M  V30 12 1 11 15
M  V30 13 1 16 17
M  V30 14 1 16 18
M  V30 15 1 16 19
M  V30 16 1 16 20
M  V30 17 1 21 22
M  V30 18 1 21 23
M  V30 19 1 21 24
M  V30 20 1 21 25
M  V30 21 1 26 27
M  V30 22 1 26 28
M  V30 23 1 26 29
M  V30 24 1 26 30
M  V30 25 1 31 32
M  V30 26 1 31 33
M  V30 27 1 31 34
M  V30 28 1 31 35
M  V30 29 1 36 37
M  V30 30 1 36 38
M  V30 31 1 36 39
M  V30 32 1 36 40
M  V30 33 1 41 42
M  V30 34 1 41 43
M  V30 35 1 41 44
M  V30 36 1 41 45
M  V30 37 1 46 47
M  V30 38 1 47 48
M  V30 39 1 49 50
M  V30 40 1 50 51
M  V30 41 1 52 53
M  V30 42 1 53 54
M  V30 43 1 55 56
M  V30 44 1 56 57
M  V30 45 1 58 59
M  V30 46 1 59 60
M  V30 47 1 61 62
M  V30 48 1 62 63
M  V30 49 1 64 65
M  V30 50 1 65 66
M  V30 51 1 67 68
M  V30 52 1 68 69
M  V30 53 1 70 71
M  V30 54 1 71 72
M  V30 55 1 73 74
M  V30 56 1 74 75
M  V30 57 1 76 77
M  V30 58 1 77 78
M  V30 59 1 79 80
M  V30 60 1 80 81
M  V30 61 1 82 83
M  V30 62 1 83 84
M  V30 63 1 85 86
M  V30 64 1 86 87
M  V30 65 1 88 89
M  V30 66 1 89 90
M  V30 67 1 91 92
M  V30 68 1 92 93
M  V30 69 1 94 95
M  V30 70 1 95 96
M  V30 71 1 97 98
M  V30 72 1 98 99
M  V30 73 1 2 49
M  V30 74 1 3 73
M  V30 75 1 4 70
M  V30 76 1 5 94
M  V30 77 1 7 46
M  V30 78 1 8 88
M  V30 79 1 9 67
M  V30 80 1 10 58
M  V30 81 1 12 91
M  V30 82 1 13 79
M  V30 83 1 14 64
M  V30 84 1 15 55
M  V30 85 1 17 66
M  V30 86 1 18 52
M  V30 87 1 19 85
M  V30 88 1 20 61
M  V30 89 1 22 48
M  V30 90 1 23 81
M  V30 91 1 24 87
M  V30 92 1 25 82
M  V30 93 1 27 54
M  V30 94 1 28 76
M  V30 95 1 29 72
M  V30 96 1 30 63
M  V30 97 1 32 51
M  V30 98 1 33 78
M  V30 99 1 34 57
M  V30 100 1 35 93
M  V30 101 1 37 84
M  V30 102 1 38 97
M  V30 103 1 39 69
M  V30 104 1 40 96
M  V30 105 1 42 90
M  V30 106 1 43 75
M  V30 107 1 44 99
M  V30 108 1 45 60
M  V30 END BOND
M  V30 END CTAB
M  END

$$$$
