
     RDKit          3D

  0  0  0  0  0  0  0  0  0  0999 V3000
M  V30 BEGIN CTAB
M  V30 COUNTS 99 108 0 0 0
M  V30 BEGIN ATOM
M  V30 1 Pd -4.5145 0.0200 -0.2340 0
M  V30 2 Pb -5.0405 0.6020 -0.8586 0
M  V30 3 Pb -3.7225 0.6163 -0.3615 0
M  V30 4 Pb -5.3027 -0.5849 -0.0931 0
M  V30 5 Pb -3.9598 -0.5353 0.3881 0
M  V30 6 Pd 4.6397 6.2411 4.2564 0
M  V30 7 Pb 5.2811 5.6235 3.8032 0
M  V30 8 Pb 4.3798 6.6635 3.3893 0
M  V30 9 Pb 4.7375 5.7036 5.0868 0
M  V30 10 Pb 3.9172 6.7619 4.7028 0
M  V30 11 Pd 1.8468 -1.0534 -4.9888 0
M  V30 12 Pb 0.9640 -0.9723 -5.4855 0
M  V30 13 Pb 2.7255 -1.0817 -4.5131 0
M  V30 14 Pb 1.8156 -2.0554 -5.0574 0
M  V30 15 Pb 1.8716 -0.0622 -4.9152 0
M  V30 16 Pd 0.4889 -5.7966 -2.0549 0
M  V30 17 Pb 0.8174 -5.4630 -2.9444 0
M  V30 18 Pb 0.1775 -6.1375 -1.1748 0
M  V30 19 Pb 1.3778 -5.6319 -1.6330 0
M  V30 20 Pb -0.4373 -5.9808 -2.4303 0
M  V30 21 Pd 5.3039 -1.0300 1.7141 0
M  V30 22 Pb 5.6368 -0.1106 1.9351 0
M  V30 23 Pb 5.5365 -0.8936 0.7534 0
M  V30 24 Pb 5.0341 -1.9540 1.4520 0
M  V30 25 Pb 5.0052 -1.2095 2.6540 0
M  V30 26 Pd -5.3387 -4.9788 -1.4469 0
M  V30 27 Pb -5.0558 -5.4140 -0.5994 0
M  V30 28 Pb -5.6030 -4.5337 -2.2970 0
M  V30 29 Pb -5.9754 -4.3873 -0.9531 0
M  V30 30 Pb -4.6107 -5.4798 -1.9474 0
M  V30 31 Pd -3.6779 1.1643 -5.1937 0
M  V30 32 Pb -4.3819 1.5790 -4.6176 0
M  V30 33 Pb -4.2668 0.3689 -5.2991 0
M  V30 34 Pb -3.0762 1.9469 -5.0765 0
M  V30 35 Pb -2.9383 0.6750 -5.6879 0
M  V30 36 Pd 1.0375 0.2775 5.0375 0
M  V30 37 Pb 1.7948 -0.3790 5.0124 0
M  V30 38 Pb 0.3081 0.9678 5.0554 0
M  V30 39 Pb 1.6217 0.8538 5.6055 0
M  V30 40 Pb 0.4477 -0.3114 4.4814 0
M  V30 41 Pd 0.2124 5.2436 2.8721 0
M  V30 42 Pb 0.8141 5.8226 2.3152 0
M  V30 43 Pb 0.0016 4.6697 2.0813 0
M  V30 44 Pb -0.3288 4.6324 3.4552 0
M  V30 45 Pb 0.4040 5.8451 3.6471 0
M  V30 46 Ag 5.7142 5.0976 3.4908 0
M  V30 47 Fe 5.8313 2.8373 2.7660 0
M  V30 48 Ag 5.9292 0.5735 2.0495 0
M  V30 49 Ag 2.0124 -5.5265 -1.2518 0
M  V30 50 Fe 3.4475 -4.0870 -0.0281 0
M  V30 51 Ag 4.8741 -2.6375 1.1937 0
M  V30 52 Ag -0.1639 -6.3544 -0.5542 0
M  V30 53 Fe -2.4060 -6.2557 0.1602 0
M  V30 54 Ag -4.6937 -5.7348 -0.0401 0
M  V30 55 Ag 1.7586 0.6686 -4.8639 0
M  V30 56 Fe -0.1932 1.9894 -4.8803 0
M  V30 57 Ag -2.5079 2.4144 -4.9966 0
M  V30 58 Ag 4.6738 5.2130 5.6418 0
M  V30 59 Fe 3.4543 3.2161 6.0120 0
M  V30 60 Ag 2.0910 1.2780 6.0043 0
M  V30 61 Ag -3.5087 -0.9211 0.8491 0
M  V30 62 Fe -1.7657 -0.8646 2.4644 0
M  V30 63 Ag -0.0213 -0.7354 4.0742 0
M  V30 64 Ag -3.1195 1.0550 -0.4383 0
M  V30 65 Fe -1.6355 2.6514 0.5038 0
M  V30 66 Ag -0.1789 4.2468 1.4893 0
M  V30 67 Ag -5.7673 -4.1687 -2.9253 0
M  V30 68 Fe -5.3076 -2.2359 -4.2150 0
M  V30 69 Ag -4.6948 -0.2399 -5.3335 0
M  V30 70 Ag 3.3818 -1.0372 -4.1530 0
M  V30 71 Fe 4.5737 -0.9402 -2.1024 0
M  V30 72 Ag 5.6453 -0.8590 0.0141 0
M  V30 73 Ba -5.4020 1.0633 -1.3311 0
M  V30 74 Ga -5.1820 1.4649 -2.7358 0
M  V30 75 Ba -4.9086 1.8235 -4.1426 0
M  V30 76 Ba 4.7510 -1.4041 3.3353 0
M  V30 77 Ga 3.5681 -1.1012 4.1695 0
M  V30 78 Ba 2.4002 -0.8259 5.0340 0
M  V30 79 Ba 3.3093 7.0694 5.0066 0
M  V30 80 Ga 1.9142 6.7544 4.6632 0
M  V30 81 Ba 0.5882 6.3223 4.1948 0
M  V30 82 Ba 4.0675 6.9163 2.7566 0
M  V30 83 Ga 2.6979 6.6297 2.2812 0
M  V30 84 Ba 1.3094 6.2521 1.9431 0
M  V30 85 Ba 0.3304 -0.8991 -5.9093 0
M  V30 86 Ga -1.0306 -0.2838 -5.9118 0
M  V30 87 Ba -2.4101 0.2686 -6.0634 0
M  V30 88 Ba -1.1258 -6.1703 -2.7076 0
M  V30 89 Ga -2.5864 -5.9554 -2.4762 0
M  V30 90 Ba -4.0712 -5.8314 -2.3613 0
M  V30 91 Ba 1.7930 -2.8056 -5.1358 0
M  V30 92 Ga 1.4213 -3.9979 -4.3394 0
M  V30 93 Ba 1.0736 -5.2454 -3.6205 0
M  V30 94 Ba -5.8874 -1.0457 0.0237 0
M  V30 95 Ga -6.1723 -2.4641 -0.2768 0
M  V30 96 Ba -6.4081 -3.8862 -0.6010 0
M  V30 97 Ba -0.2429 1.4831 5.0654 0
M  V30 98 Ga -0.4707 2.8219 4.4765 0
M  V30 99 Ba -0.7170 4.1615 3.8968 0
M  V30 END ATOM
M  V30 BEGIN BOND
M  V30 1 1 1 2
M  V30 2 1 1 3
M  V30 3 1 1 4
M  V30 4 1 1 5
M  V30 5 1 6 7
M  V30 6 1 6 8
M  V30 7 1 6 9
M  V30 8 1 6 10
M  V30 9 1 11 12
M  V30 10 1 11 13
M  V30 11 1 11 14
M  V30 12 1 11 15
M  V30 13 1 16 17
M  V30 14 1 16 18
M  V30 15 1 16 19
M  V30 16 1 16 20
M  V30 17 1 21 22
M  V30 18 1 21 23
M  V30 19 1 21 24
M  V30 20 1 21 25
M  V30 21 1 26 27
M  V30 22 1 26 28
M  V30 23 1 26 29
M  V30 24 1 26 30
M  V30 25 1 31 32
M  V30 26 1 31 33
M  V30 27 1 31 34
M  V30 28 1 31 35
M  V30 29 1 36 37
M  V30 30 1 36 38
M  V30 31 1 36 39
M  V30 32 1 36 40
M  V30 33 1 41 42
M  V30 34 1 41 43
M  V30 35 1 41 44
M  V30 36 1 41 45
M  V30 37 1 46 47
M  V30 38 1 47 48
M  V30 39 1 49 50
M  V30 40 1 50 51
M  V30 41 1 52 53
M  V30 42 1 53 54
M  V30 43 1 55 56
M  V30 44 1 56 57
M  V30 45 1 58 59
M  V30 46 1 59 60
M  V30 47 1 61 62
M  V30 48 1 62 63
M  V30 49 1 64 65
M  V30 50 1 65 66
M  V30 51 1 67 68
M  V30 52 1 68 69
M  V30 53 1 70 71
M  V30 54 1 71 72
M  V30 55 1 73 74
M  V30 56 1 74 75
M  V30 57 1 76 77
M  V30 58 1 77 78
M  V30 59 1 79 80
M  V30 60 1 80 81
M  V30 61 1 82 83
M  V30 62 1 83 84
M  V30 63 1 85 86
M  V30 64 1 86 87
M  V30 65 1 88 89
M  V30 66 1 89 90
M  V30 67 1 91 92
M  V30 68 1 92 93
M  V30 69 1 94 95
M  V30 70 1 95 96
M  V30 71 1 97 98
M  V30 72 1 98 99
M  V30 73 1 2 73
M  V30 74 1 3 64
M  V30 75 1 4 94
M  V30 76 1 5 61
M  V30 77 1 7 46
M  V30 78 1 8 82
M  V30 79 1 9 58
M  V30 80 1 10 79
M  V30 81 1 12 85
M  V30 82 1 13 70
M  V30 83 1 14 91
M  V30 84 1 15 55
M  V30 85 1 17 93
M  V30 86 1 18 52
M  V30 87 1 19 49
M  V30 88 1 20 88
M  V30 89 1 22 48
M  V30 90 1 23 72
M  V30 91 1 24 51
M  V30 92 1 25 76
M  V30 93 1 27 54
M  V30 94 1 28 67
M  V30 95 1 29 96
M  V30 96 1 30 90
M  V30 97 1 32 75
M  V30 98 1 33 69
M  V30 99 1 34 57
M  V30 100 1 35 87
M  V30 101 1 37 78
M  V30 102 1 38 97
M  V30 103 1 39 60
M  V30 104 1 40 63
M  V30 105 1 42 84
M  V30 106 1 43 66
M  V30 107 1 44 99
M  V30 108 1 45 81
M  V30 END BOND
M  V30 END CTAB
M  END

$$$$
