
     RDKit          3D

  0  0  0  0  0  0  0  0  0  0999 V3000
M  V30 BEGIN CTAB
M  V30 COUNTS 99 108 0 0 0
M  V30 BEGIN ATOM
M  V30 1 Pd 5.5050 -1.2059 -4.2258 0
M  V30 2 Pb 4.7645 -1.6197 -4.7530 0
M  V30 3 Pb 5.0657 -0.3031 -4.1586 0
M  V30 4 Pb 5.9602 -2.0859 -4.3238 0
M  V30 5 Pb 6.2243 -0.9170 -3.5690 0
M  V30 6 Pd -4.0918 -1.3589 4.6158 0
M  V30 7 Pb -3.5018 -0.9679 5.3464 0
M  V30 8 Pb -4.5927 -1.6336 3.7930 0
M  V30 9 Pb -4.8017 -0.6769 4.7827 0
M  V30 10 Pb -3.4263 -2.0852 4.4849 0
M  V30 11 Pd 1.2665 0.8130 5.6240 0
M  V30 12 Pb 0.3420 0.6583 6.0233 0
M  V30 13 Pb 2.1438 0.9435 5.1685 0
M  V30 14 Pb 1.3857 -0.1718 5.5651 0
M  V30 15 Pb 1.1633 1.8065 5.6035 0
M  V30 16 Pd 6.3935 -2.3085 0.9307 0
M  V30 17 Pb 6.1124 -1.4695 1.3899 0
M  V30 18 Pb 6.7157 -3.1611 0.5299 0
M  V30 19 Pb 7.0167 -1.7892 0.3308 0
M  V30 20 Pb 5.5657 -2.7634 1.2490 0
M  V30 21 Pd 0.4269 -3.5204 -3.2694 0
M  V30 22 Pb -0.4664 -3.3053 -2.8267 0
M  V30 23 Pb 0.8989 -3.4950 -2.3808 0
M  V30 24 Pb 1.2656 -3.5513 -3.8185 0
M  V30 25 Pb -0.0466 -3.6790 -4.1272 0
M  V30 26 Pd -1.1411 3.5581 2.0973 0
M  V30 27 Pb -0.4680 3.9023 2.7495 0
M  V30 28 Pb -0.4583 2.9874 1.5875 0
M  V30 29 Pb -1.8425 4.1417 2.4973 0
M  V30 30 Pb -1.8748 3.1654 1.5640 0
M  V30 31 Pd -5.4875 2.0367 1.4384 0
M  V30 32 Pb -5.6028 1.0636 1.2267 0
M  V30 33 Pb -6.0332 1.8957 2.2589 0
M  V30 34 Pb -4.8451 2.1773 0.6799 0
M  V30 35 Pb -5.3281 2.9737 1.7473 0
M  V30 36 Pd 0.6507 1.6384 -3.2386 0
M  V30 37 Pb 0.8320 1.5634 -2.2339 0
M  V30 38 Pb 1.6152 1.8318 -3.4314 0
M  V30 39 Pb -0.2954 1.3864 -3.0987 0
M  V30 40 Pb 0.3526 1.8760 -4.1630 0
M  V30 41 Pd -3.4803 0.4521 -3.7923 0
M  V30 42 Pb -3.6873 -0.1126 -4.5832 0
M  V30 43 Pb -3.2630 1.1941 -4.4260 0
M  V30 44 Pb -3.4087 -0.3792 -3.2110 0
M  V30 45 Pb -3.3121 1.0512 -3.0078 0
M  V30 46 Ag 4.8709 -3.0383 1.3011 0
M  V30 47 Fe 2.9958 -3.3329 -0.1336 0
M  V30 48 Ag 1.2126 -3.5522 -1.6943 0
M  V30 49 Ag 6.2843 -2.7470 -4.2468 0
M  V30 50 Fe 6.8766 -3.8247 -2.2459 0
M  V30 51 Ag 6.9389 -3.7204 0.0995 0
M  V30 52 Ag -2.8464 -2.5449 4.4664 0
M  V30 53 Fe -0.5589 -2.1981 4.9031 0
M  V30 54 Ag 1.3277 -0.9000 5.4489 0
M  V30 55 Ag 2.7768 1.0407 4.7839 0
M  V30 56 Fe 4.3698 0.1310 3.2811 0
M  V30 57 Ag 5.9108 -0.8637 1.7778 0
M  V30 58 Ag -0.4696 -3.7327 -4.7308 0
M  V30 59 Fe -2.2820 -2.4349 -5.4682 0
M  V30 60 Ag -3.7095 -0.6018 -5.1354 0
M  V30 61 Ag -2.3668 2.8376 1.1263 0
M  V30 62 Fe -2.2072 1.8566 -0.9977 0
M  V30 63 Ag -0.9976 1.2655 -2.9173 0
M  V30 64 Ba 4.8006 0.4035 -4.1107 0
M  V30 65 Ga 3.5469 1.1447 -3.8434 0
M  V30 66 Ba 2.3396 1.9630 -3.5874 0
M  V30 67 Ba -5.3671 -0.1937 4.8664 0
M  V30 68 Ga -5.9201 0.8076 3.9433 0
M  V30 69 Ba -6.3552 1.7665 2.9183 0
M  V30 70 Ba -3.0586 -0.6421 5.8816 0
M  V30 71 Ga -1.6825 -0.0764 6.0514 0
M  V30 72 Ba -0.3403 0.5174 6.3482 0
M  V30 73 Ba -4.3063 2.3249 0.1735 0
M  V30 74 Ga -3.7941 1.8837 -1.1412 0
M  V30 75 Ba -3.1890 1.5320 -2.4437 0
M  V30 76 Ba 4.2676 -2.0667 -5.0944 0
M  V30 77 Ga 3.0254 -2.7636 -4.6949 0
M  V30 78 Ba 1.7859 -3.4993 -4.3628 0
M  V30 79 Ba 6.7700 -0.7484 -3.0574 0
M  V30 80 Ga 7.0769 -1.0696 -1.6297 0
M  V30 81 Ba 7.3854 -1.3883 -0.2018 0
M  V30 82 Ba 0.0517 2.5418 1.2098 0
M  V30 83 Ga 0.4519 2.0777 -0.1650 0
M  V30 84 Ba 0.9626 1.5317 -1.4715 0
M  V30 85 Ba -4.9384 -1.7485 3.1349 0
M  V30 86 Ga -5.3379 -0.7639 2.1056 0
M  V30 87 Ba -5.6877 0.3185 1.1598 0
M  V30 88 Ba 1.1466 2.5494 5.5045 0
M  V30 89 Ga 0.5751 3.3801 4.4291 0
M  V30 90 Ba -0.0322 4.1300 3.3146 0
M  V30 91 Ba -1.1502 -3.1143 -2.5264 0
M  V30 92 Ga -2.1969 -2.0500 -2.6854 0
M  V30 93 Ba -3.2785 -1.0149 -2.7983 0
M  V30 94 Ba -2.4412 4.5417 2.6930 0
M  V30 95 Ga -3.8384 4.1773 2.4118 0
M  V30 96 Ba -5.1584 3.6390 2.0475 0
M  V30 97 Ba -0.0293 2.1099 -4.7664 0
M  V30 98 Ga -1.4869 1.9507 -4.9542 0
M  V30 99 Ba -2.9344 1.6525 -4.9219 0
M  V30 END ATOM
M  V30 BEGIN BOND
M  V30 1 1 1 2
M  V30 2 1 1 3
M  V30 3 1 1 4
M  V30 4 1 1 5
M  V30 5 1 6 7
M  V30 6 1 6 8
M  V30 7 1 6 9
M  V30 8 1 6 10
M  V30 9 1 11 12
M  V30 10 1 11 13
M  V30 11 1 11 14
M  V30 12 1 11 15
M  V30 13 1 16 17
M  V30 14 1 16 18
M  V30 15 1 16 19
M  V30 16 1 16 20
M  V30 17 1 21 22
M  V30 18 1 21 23
M  V30 19 1 21 24
M  V30 20 1 21 25
M  V30 21 1 26 27
M  V30 22 1 26 28
M  V30 23 1 26 29
M  V30 24 1 26 30
M  V30 25 1 31 32
M  V30 26 1 31 33
M  V30 27 1 31 34
M  V30 28 1 31 35
M  V30 29 1 36 37
M  V30 30 1 36 38
M  V30 31 1 36 39
M  V30 32 1 36 40
M  V30 33 1 41 42
M  V30 34 1 41 43
M  V30 35 1 41 44
M  V30 36 1 41 45
M  V30 37 1 46 47
M  V30 38 1 47 48
M  V30 39 1 49 50
M  V30 40 1 50 51
M  V30 41 1 52 53
M  V30 42 1 53 54
M  V30 43 1 55 56
M  V30 44 1 56 57
M  V30 45 1 58 59
M  V30 46 1 59 60
M  V30 47 1 61 62
M  V30 48 1 62 63
M  V30 49 1 64 65
M  V30 50 1 65 66
M  V30 51 1 67 68
M  V30 52 1 68 69
M  V30 53 1 70 71
M  V30 54 1 71 72
M  V30 55 1 73 74
M  V30 56 1 74 75
M  V30 57 1 76 77
M  V30 58 1 77 78
M  V30 59 1 79 80
M  V30 60 1 80 81
M  V30 61 1 82 83
M  V30 62 1 83 84
M  V30 63 1 85 86
M  V30 64 1 86 87
M  V30 65 1 88 89
M  V30 66 1 89 90
M  V30 67 1 91 92
M  V30 68 1 92 93
M  V30 69 1 94 95
M  V30 70 1 95 96
M  V30 71 1 97 98
M  V30 72 1 98 99
M  V30 73 1 2 76
M  V30 74 1 3 64
M  V30 75 1 4 49
M  V30 76 1 5 79
M  V30 77 1 7 70
M  V30 78 1 8 85
M  V30 79 1 9 67
M  V30 80 1 10 52
M  V30 81 1 12 72
M  V30 82 1 13 55
M  V30 83 1 14 54
M  V30 84 1 15 88
M  V30 85 1 17 57
M  V30 86 1 18 51
M  V30 87 1 19 81
M  V30 88 1 20 46
M  V30 89 1 22 91
M  V30 90 1 23 48
M  V30 91 1 24 78
M  V30 92 1 25 58
M  V30 93 1 27 90
M  V30 94 1 28 82
M  V30 95 1 29 94
M  V30 96 1 30 61
M  V30 97 1 32 87
M  V30 98 1 33 69
M  V30 99 1 34 73
M  V30 100 1 35 96
M  V30 101 1 37 84
M  V30 102 1 38 66
M  V30 103 1 39 63
M  V30 104 1 40 97
M  V30 105 1 42 60
M  V30 106 1 43 99
M  V30 107 1 44 93
M  V30 108 1 45 75
M  V30 END BOND
M  V30 END CTAB
M  END

$$$$
