
     RDKit          3D

  0  0  0  0  0  0  0  0  0  0999 V3000
M  V30 BEGIN CTAB
M  V30 COUNTS 99 108 0 0 0
M  V30 BEGIN ATOM
M  V30 1 Pd 0.3704 -2.5952 3.9279 0
M  V30 2 Pb 1.0676 -3.1451 3.4679 0
M  V30 3 Pb 1.0826 -2.1712 4.4944 0
M  V30 4 Pb -0.3336 -3.0987 3.4255 0
M  V30 5 Pb -0.3452 -2.0104 4.3083 0
M  V30 6 Pd -4.6046 -2.4740 0.8359 0
M  V30 7 Pb -5.2945 -1.9651 0.3282 0
M  V30 8 Pb -4.1702 -1.6051 1.0711 0
M  V30 9 Pb -3.8935 -3.0120 1.2904 0
M  V30 10 Pb -4.9472 -3.3037 0.4047 0
M  V30 11 Pd -3.3180 0.2319 -2.9421 0
M  V30 12 Pb -2.3672 0.4281 -3.1772 0
M  V30 13 Pb -3.1605 0.5083 -1.9883 0
M  V30 14 Pb -3.4725 -0.1192 -3.8683 0
M  V30 15 Pb -4.2737 0.0719 -2.7063 0
M  V30 16 Pd 2.6669 -4.0974 -3.0485 0
M  V30 17 Pb 2.0731 -4.8978 -3.1234 0
M  V30 18 Pb 3.2692 -3.3011 -2.9898 0
M  V30 19 Pb 2.4188 -3.8533 -3.9877 0
M  V30 20 Pb 2.8694 -4.3205 -2.0942 0
M  V30 21 Pd 0.0345 4.1980 -1.5873 0
M  V30 22 Pb -0.8899 3.9285 -1.3172 0
M  V30 23 Pb 0.9486 4.4711 -1.8955 0
M  V30 24 Pb 0.0948 3.4091 -2.1983 0
M  V30 25 Pb -0.0309 4.9634 -0.9416 0
M  V30 26 Pd -1.9611 -4.3939 -5.2262 0
M  V30 27 Pb -1.1261 -4.0585 -5.6640 0
M  V30 28 Pb -1.4319 -5.1481 -4.8407 0
M  V30 29 Pb -2.4750 -3.6018 -5.5645 0
M  V30 30 Pb -2.7605 -4.7273 -4.7279 0
M  V30 31 Pd 3.9043 1.9406 5.3777 0
M  V30 32 Pb 4.5480 1.6759 4.6345 0
M  V30 33 Pb 3.1857 2.2807 5.9780 0
M  V30 34 Pb 4.1847 2.8868 5.2803 0
M  V30 35 Pb 3.6239 0.9893 5.5246 0
M  V30 36 Pd -2.2431 4.2406 3.0475 0
M  V30 37 Pb -1.7757 4.4150 3.9121 0
M  V30 38 Pb -1.8082 5.0195 2.5899 0
M  V30 39 Pb -2.5819 3.4080 3.4819 0
M  V30 40 Pb -2.6696 3.9984 2.1785 0
M  V30 41 Pd 5.0917 2.9520 -0.2859 0
M  V30 42 Pb 5.0854 2.1100 -0.8267 0
M  V30 43 Pb 5.1659 3.8075 0.2100 0
M  V30 44 Pb 5.3747 2.4396 0.5505 0
M  V30 45 Pb 4.7318 3.4734 -1.0586 0
M  V30 46 Ag 3.7326 -2.7123 -2.9567 0
M  V30 47 Fe 4.3816 -0.6061 -2.0703 0
M  V30 48 Ag 5.1287 1.4981 -1.2598 0
M  V30 49 Ag -0.9079 -1.5593 4.5125 0
M  V30 50 Fe -1.9069 0.5771 4.2424 0
M  V30 51 Ag -2.7315 2.7656 3.8357 0
M  V30 52 Ag -5.1184 -3.8573 -0.0644 0
M  V30 53 Fe -4.3626 -4.5845 -2.1909 0
M  V30 54 Ag -3.3139 -4.9665 -4.2834 0
M  V30 55 Ag 2.6090 2.6349 6.2924 0
M  V30 56 Fe 0.5501 3.5999 5.6201 0
M  V30 57 Ag -1.4090 4.4193 4.5643 0
M  V30 58 Ag 1.5663 -3.5351 3.0657 0
M  V30 59 Fe 2.3367 -4.0486 0.8781 0
M  V30 60 Ag 2.9916 -4.4632 -1.3673 0
M  V30 61 Ag 4.3826 3.5720 5.0917 0
M  V30 62 Fe 4.9038 4.5069 3.0004 0
M  V30 63 Ag 5.2152 4.3779 0.6754 0
M  V30 64 Ba 5.0247 1.4930 4.0598 0
M  V30 65 Ga 5.2595 1.8108 2.6135 0
M  V30 66 Ba 5.5992 2.0429 1.1718 0
M  V30 67 Ba 1.6181 -5.4861 -3.2148 0
M  V30 68 Ga 0.3004 -5.6253 -3.8595 0
M  V30 69 Ba -1.0151 -5.6818 -4.5210 0
M  V30 70 Ba 1.6344 -1.9413 4.9536 0
M  V30 71 Ga 2.5024 -0.7842 5.2611 0
M  V30 72 Ba 3.4385 0.2784 5.6871 0
M  V30 73 Ba -1.6610 0.5962 -3.3611 0
M  V30 74 Ga -0.7488 1.6984 -3.0069 0
M  V30 75 Ba 0.1507 2.8078 -2.6425 0
M  V30 76 Ba 2.1932 -3.6748 -4.6821 0
M  V30 77 Ga 0.8759 -3.7349 -5.3473 0
M  V30 78 Ba -0.4713 -3.8233 -5.9460 0
M  V30 79 Ba -3.8348 -0.9345 1.1084 0
M  V30 80 Ga -3.4256 -0.0826 -0.0308 0
M  V30 81 Ba -3.0682 0.6683 -1.2556 0
M  V30 82 Ba 1.6253 4.6460 -2.1750 0
M  V30 83 Ga 3.0262 4.2758 -1.8895 0
M  V30 84 Ba 4.4230 3.8992 -1.5927 0
M  V30 85 Ba -5.7669 -1.5923 -0.1126 0
M  V30 86 Ga -5.4528 -0.7984 -1.3079 0
M  V30 87 Ba -4.9740 -0.0423 -2.4728 0
M  V30 88 Ba -0.1176 5.5137 -0.4338 0
M  V30 89 Ga -0.7790 5.5683 0.8892 0
M  V30 90 Ba -1.4552 5.5627 2.2059 0
M  V30 91 Ba -0.8443 -3.5349 3.0902 0
M  V30 92 Ga -2.1115 -3.4333 2.3402 0
M  V30 93 Ba -3.3782 -3.4728 1.5835 0
M  V30 94 Ba -1.5874 3.7477 -1.1092 0
M  V30 95 Ga -2.2945 3.7656 0.1834 0
M  V30 96 Ba -2.9393 3.8074 1.5075 0
M  V30 97 Ba -3.5825 -0.4138 -4.5521 0
M  V30 98 Ga -3.2201 -1.7003 -5.1856 0
M  V30 99 Ba -2.8487 -2.9926 -5.8018 0
M  V30 END ATOM
M  V30 BEGIN BOND
M  V30 1 1 1 2
M  V30 2 1 1 3
M  V30 3 1 1 4
M  V30 4 1 1 5
M  V30 5 1 6 7
M  V30 6 1 6 8
M  V30 7 1 6 9
M  V30 8 1 6 10
M  V30 9 1 11 12
M  V30 10 1 11 13
M  V30 11 1 11 14
M  V30 12 1 11 15
M  V30 13 1 16 17
M  V30 14 1 16 18
M  V30 15 1 16 19
M  V30 16 1 16 20
M  V30 17 1 21 22
M  V30 18 1 21 23
M  V30 19 1 21 24
M  V30 20 1 21 25
M  V30 21 1 26 27
M  V30 22 1 26 28
M  V30 23 1 26 29
M  V30 24 1 26 30
M  V30 25 1 31 32
M  V30 26 1 31 33
M  V30 27 1 31 34
M  V30 28 1 31 35
M  V30 29 1 36 37
M  V30 30 1 36 38
M  V30 31 1 36 39
M  V30 32 1 36 40
M  V30 33 1 41 42
M  V30 34 1 41 43
M  V30 35 1 41 44
M  V30 36 1 41 45
M  V30 37 1 46 47
M  V30 38 1 47 48
M  V30 39 1 49 50
M  V30 40 1 50 51
M  V30 41 1 52 53
M  V30 42 1 53 54
M  V30 43 1 55 56
M  V30 44 1 56 57
M  V30 45 1 58 59
M  V30 46 1 59 60
M  V30 47 1 61 62
M  V30 48 1 62 63
M  V30 49 1 64 65
M  V30 50 1 65 66
M  V30 51 1 67 68
M  V30 52 1 68 69
M  V30 53 1 70 71
M  V30 54 1 71 72
M  V30 55 1 73 74
M  V30 56 1 74 75
M  V30 57 1 76 77
M  V30 58 1 77 78
M  V30 59 1 79 80
M  V30 60 1 80 81
M  V30 61 1 82 83
M  V30 62 1 83 84
M  V30 63 1 85 86
M  V30 64 1 86 87
M  V30 65 1 88 89
M  V30 66 1 89 90
M  V30 67 1 91 92
M  V30 68 1 92 93
M  V30 69 1 94 95
M  V30 70 1 95 96
M  V30 71 1 97 98
M  V30 72 1 98 99
M  V30 73 1 2 58
M  V30 74 1 3 70
M  V30 75 1 4 91
M  V30 76 1 5 49
M  V30 77 1 7 85
M  V30 78 1 8 79
M  V30 79 1 9 93
M  V30 80 1 10 52
M  V30 81 1 12 73
M  V30 82 1 13 81
M  V30 83 1 14 97
M  V30 84 1 15 87
M  V30 85 1 17 67
M  V30 86 1 18 46
M  V30 87 1 19 76
M  V30 88 1 20 60
M  V30 89 1 22 94
M  V30 90 1 23 82
M  V30 91 1 24 75
M  V30 92 1 25 88
M  V30 93 1 27 78
M  V30 94 1 28 69
M  V30 95 1 29 99
M  V30 96 1 30 54
M  V30 97 1 32 64
M  V30 98 1 33 55
M  V30 99 1 34 61
M  V30 100 1 35 72
M  V30 101 1 37 57
M  V30 102 1 38 90
M  V30 103 1 39 51
M  V30 104 1 40 96
M  V30 105 1 42 48
M  V30 106 1 43 63
M  V30 107 1 44 66
M  V30 108 1 45 84
M  V30 END BOND
M  V30 END CTAB
M  END

$$$$
