
     RDKit          3D

  0  0  0  0  0  0  0  0  0  0999 V3000
M  V30 BEGIN CTAB
M  V30 COUNTS 99 108 0 0 0
M  V30 BEGIN ATOM
M  V30 1 Pd -4.3326 0.1295 3.3293 0
M  V30 2 Pb -4.9280 0.9390 3.2911 0
M  V30 3 Pb -3.7807 -0.6922 3.4532 0
M  V30 4 Pb -5.0359 -0.4903 2.9772 0
M  V30 5 Pb -3.5894 0.6935 3.6932 0
M  V30 6 Pd 6.6962 -3.7621 0.7461 0
M  V30 7 Pb 6.9777 -3.2307 -0.0519 0
M  V30 8 Pb 6.1810 -4.3974 0.1784 0
M  V30 9 Pb 7.1206 -3.1149 1.3708 0
M  V30 10 Pb 6.3549 -4.2372 1.5706 0
M  V30 11 Pd -0.9442 5.7269 -4.1696 0
M  V30 12 Pb -1.9191 5.7670 -4.3812 0
M  V30 13 Pb 0.0124 5.6089 -3.9118 0
M  V30 14 Pb -0.7237 5.2731 -5.0314 0
M  V30 15 Pb -1.1789 6.0968 -3.2695 0
M  V30 16 Pd 0.4461 -1.0829 -5.3871 0
M  V30 17 Pb 0.5431 -0.3168 -6.0196 0
M  V30 18 Pb -0.5386 -1.0477 -5.5261 0
M  V30 19 Pb 1.4440 -1.1259 -5.2893 0
M  V30 20 Pb 0.2593 -1.7727 -4.6786 0
M  V30 21 Pd 4.9127 0.7642 -2.3301 0
M  V30 22 Pb 5.5829 0.0373 -2.1516 0
M  V30 23 Pb 4.3645 1.5689 -2.5615 0
M  V30 24 Pb 4.6865 0.2935 -3.1854 0
M  V30 25 Pb 5.0693 1.2160 -1.4508 0
M  V30 26 Pd -5.5491 -2.3290 -1.4499 0
M  V30 27 Pb -5.3895 -2.1016 -2.4046 0
M  V30 28 Pb -6.4064 -1.8210 -1.4563 0
M  V30 29 Pb -5.7254 -2.4900 -0.4776 0
M  V30 30 Pb -4.6357 -2.7540 -1.4591 0
M  V30 31 Pd -6.4613 4.4009 0.1467 0
M  V30 32 Pb -6.4617 4.0788 1.0953 0
M  V30 33 Pb -7.1687 3.7340 -0.0724 0
M  V30 34 Pb -5.6863 5.0127 0.3051 0
M  V30 35 Pb -6.4157 4.6801 -0.8120 0
M  V30 36 Pd 3.2346 0.6746 5.0192 0
M  V30 37 Pb 3.5457 1.3290 4.3313 0
M  V30 38 Pb 2.9577 -0.0604 5.6410 0
M  V30 39 Pb 4.1677 0.3255 4.9923 0
M  V30 40 Pb 2.3069 1.0544 5.0176 0
M  V30 41 Pd 2.0222 -4.5008 4.0976 0
M  V30 42 Pb 1.9154 -5.0521 3.2743 0
M  V30 43 Pb 1.0396 -4.3361 4.1144 0
M  V30 44 Pb 2.1279 -3.9264 4.9145 0
M  V30 45 Pb 3.0161 -4.6768 4.0417 0
M  V30 46 Ag 5.0913 1.5962 -0.8030 0
M  V30 47 Fe 4.5000 1.7265 1.4944 0
M  V30 48 Ag 3.8586 1.7320 3.7820 0
M  V30 49 Ag -1.2799 -1.0541 -5.5968 0
M  V30 50 Fe -3.3215 -1.4540 -4.4668 0
M  V30 51 Ag -5.1982 -1.9111 -3.0978 0
M  V30 52 Ag -1.4277 6.3132 -2.5947 0
M  V30 53 Fe -3.1864 5.9837 -1.0317 0
M  V30 54 Ag -5.0702 5.4408 0.3102 0
M  V30 55 Ag 5.6593 -4.8556 -0.0821 0
M  V30 56 Fe 3.6151 -5.4441 0.9379 0
M  V30 57 Ag 1.9642 -5.4092 2.6239 0
M  V30 58 Ag -2.6660 5.7678 -4.4278 0
M  V30 59 Fe -4.5922 5.3610 -3.1023 0
M  V30 60 Ag -6.2991 4.8854 -1.5232 0
M  V30 61 Ag 0.0022 -2.2312 -4.1330 0
M  V30 62 Fe -1.9083 -2.7071 -2.7864 0
M  V30 63 Ag -3.9272 -3.0078 -1.5522 0
M  V30 64 Ag -0.5139 4.8556 -5.6159 0
M  V30 65 Fe 0.0518 2.6263 -6.1984 0
M  V30 66 Ag 0.5412 0.3154 -6.4194 0
M  V30 67 Ag 7.3119 -2.6512 1.9206 0
M  V30 68 Fe 6.2575 -1.2221 3.4881 0
M  V30 69 Ag 4.8709 0.1009 4.8806 0
M  V30 70 Ag -3.0160 1.0910 3.9727 0
M  V30 71 Fe -0.7000 1.2254 4.4918 0
M  V30 72 Ag 1.6168 1.3540 5.0091 0
M  V30 73 Ag -3.4321 -1.3419 3.5780 0
M  V30 74 Fe -1.5343 -2.7412 3.8344 0
M  V30 75 Ag 0.3029 -4.2164 4.1064 0
M  V30 76 Ag -6.9942 -1.3639 -1.4110 0
M  V30 77 Fe -7.5183 0.8824 -0.8696 0
M  V30 78 Ag -7.6186 3.1717 -0.2672 0
M  V30 79 Ag 0.7241 5.4631 -3.7337 0
M  V30 80 Fe 2.3529 3.8133 -3.2175 0
M  V30 81 Ag 4.0533 2.2400 -2.6940 0
M  V30 82 Ba 7.1755 -2.8155 -0.6435 0
M  V30 83 Ga 6.6150 -1.6413 -1.3448 0
M  V30 84 Ba 6.1388 -0.4719 -2.1127 0
M  V30 85 Ba -5.3696 1.5498 3.3450 0
M  V30 86 Ga -5.8995 2.6672 2.5322 0
M  V30 87 Ba -6.4759 3.8170 1.8000 0
M  V30 88 Ba 2.1975 -1.1419 -5.2909 0
M  V30 89 Ga 3.3373 -0.6047 -4.5168 0
M  V30 90 Ba 4.5336 -0.1089 -3.8023 0
M  V30 91 Ba 6.1262 -4.5615 2.2198 0
M  V30 92 Ga 4.9081 -4.6788 3.0678 0
M  V30 93 Ba 3.7530 -4.8588 3.9898 0
M  V30 94 Ba -5.4906 -1.0425 2.7446 0
M  V30 95 Ga -5.7116 -1.7838 1.4848 0
M  V30 96 Ba -5.9510 -2.5411 0.2379 0
M  V30 97 Ba 2.7735 -0.6446 6.0772 0
M  V30 98 Ga 2.4759 -2.0680 5.8044 0
M  V30 99 Ba 2.1794 -3.4909 5.5282 0
M  V30 END ATOM
M  V30 BEGIN BOND
M  V30 1 1 1 2
M  V30 2 1 1 3
M  V30 3 1 1 4
M  V30 4 1 1 5
M  V30 5 1 6 7
M  V30 6 1 6 8
M  V30 7 1 6 9
M  V30 8 1 6 10
M  V30 9 1 11 12
M  V30 10 1 11 13
M  V30 11 1 11 14
M  V30 12 1 11 15
M  V30 13 1 16 17
M  V30 14 1 16 18
M  V30 15 1 16 19
M  V30 16 1 16 20
M  V30 17 1 21 22
M  V30 18 1 21 23
M  V30 19 1 21 24
M  V30 20 1 21 25
M  V30 21 1 26 27
M  V30 22 1 26 28
M  V30 23 1 26 29
M  V30 24 1 26 30
M  V30 25 1 31 32
M  V30 26 1 31 33
M  V30 27 1 31 34
M  V30 28 1 31 35
M  V30 29 1 36 37
M  V30 30 1 36 38
M  V30 31 1 36 39
M  V30 32 1 36 40
M  V30 33 1 41 42
M  V30 34 1 41 43
M  V30 35 1 41 44
M  V30 36 1 41 45
M  V30 37 1 46 47
M  V30 38 1 47 48
M  V30 39 1 49 50
M  V30 40 1 50 51
M  V30 41 1 52 53
M  V30 42 1 53 54
M  V30 43 1 55 56
M  V30 44 1 56 57
M  V30 45 1 58 59
M  V30 46 1 59 60
M  V30 47 1 61 62
M  V30 48 1 62 63
M  V30 49 1 64 65
M  V30 50 1 65 66
M  V30 51 1 67 68
M  V30 52 1 68 69
M  V30 53 1 70 71
M  V30 54 1 71 72
M  V30 55 1 73 74
M  V30 56 1 74 75
M  V30 57 1 76 77
M  V30 58 1 77 78
M  V30 59 1 79 80
M  V30 60 1 80 81
M  V30 61 1 82 83
M  V30 62 1 83 84
M  V30 63 1 85 86
M  V30 64 1 86 87
M  V30 65 1 88 89
M  V30 66 1 89 90
M  V30 67 1 91 92
M  V30 68 1 92 93
M  V30 69 1 94 95
M  V30 70 1 95 96
M  V30 71 1 97 98
M  V30 72 1 98 99
M  V30 73 1 2 85
M  V30 74 1 3 73
M  V30 75 1 4 94
M  V30 76 1 5 70
M  V30 77 1 7 82
M  V30 78 1 8 55
M  V30 79 1 9 67
M  V30 80 1 10 91
M  V30 81 1 12 58
M  V30 82 1 13 79
M  V30 83 1 14 64
M  V30 84 1 15 52
M  V30 85 1 17 66
M  V30 86 1 18 49
M  V30 87 1 19 88
M  V30 88 1 20 61
M  V30 89 1 22 84
M  V30 90 1 23 81
M  V30 91 1 24 90
M  V30 92 1 25 46
M  V30 93 1 27 51
M  V30 94 1 28 76
M  V30 95 1 29 96
M  V30 96 1 30 63
M  V30 97 1 32 87
M  V30 98 1 33 78
M  V30 99 1 34 54
M  V30 100 1 35 60
M  V30 101 1 37 48
M  V30 102 1 38 97
M  V30 103 1 39 69
M  V30 104 1 40 72
M  V30 105 1 42 57
M  V30 106 1 43 75
M  V30 107 1 44 99
M  V30 108 1 45 93
M  V30 END BOND
M  V30 END CTAB
M  END

$$$$
