
     RDKit          3D

  0  0  0  0  0  0  0  0  0  0999 V3000
M  V30 BEGIN CTAB
M  V30 COUNTS 99 108 0 0 0
M  V30 BEGIN ATOM
M  V30 1 Pd 0.8882 4.3062 -4.2618 0
M  V30 2 Pb 0.7999 4.8828 -3.4285 0
M  V30 3 Pb 1.8744 4.3329 -4.1616 0
M  V30 4 Pb -0.0987 4.3581 -4.4413 0
M  V30 5 Pb 1.0362 3.6342 -4.9824 0
M  V30 6 Pd -1.7979 -0.1979 4.5819 0
M  V30 7 Pb -1.7235 0.7835 4.4068 0
M  V30 8 Pb -1.8167 -1.1858 4.8042 0
M  V30 9 Pb -2.3238 -0.0331 5.4140 0
M  V30 10 Pb -1.1764 -0.3590 3.8134 0
M  V30 11 Pd 1.0408 -3.5235 7.7429 0
M  V30 12 Pb 1.6127 -3.8354 6.9872 0
M  V30 13 Pb 0.4494 -3.1444 8.4519 0
M  V30 14 Pb 0.2181 -3.7494 7.2106 0
M  V30 15 Pb 1.8531 -3.0730 8.1090 0
M  V30 16 Pd 2.6567 -2.5995 -3.4047 0
M  V30 17 Pb 2.0761 -3.1348 -4.0113 0
M  V30 18 Pb 2.7009 -1.9166 -4.1329 0
M  V30 19 Pb 2.4917 -3.2657 -2.6753 0
M  V30 20 Pb 3.2120 -2.0141 -2.8081 0
M  V30 21 Pd 2.7284 4.9901 1.3792 0
M  V30 22 Pb 1.9047 4.8590 1.9313 0
M  V30 23 Pb 3.3211 4.6998 2.1333 0
M  V30 24 Pb 2.1494 5.2889 0.5924 0
M  V30 25 Pb 3.5426 5.0791 0.8192 0
M  V30 26 Pd -4.6901 2.1163 -4.2743 0
M  V30 27 Pb -4.0192 2.8323 -4.4856 0
M  V30 28 Pb -5.4029 1.4525 -4.0618 0
M  V30 29 Pb -4.5883 2.2366 -3.2920 0
M  V30 30 Pb -4.7164 1.7980 -5.2228 0
M  V30 31 Pd 5.0217 0.3139 3.4745 0
M  V30 32 Pb 4.9996 0.2048 4.4720 0
M  V30 33 Pb 4.8949 -0.6739 3.4237 0
M  V30 34 Pb 5.0826 1.3096 3.5709 0
M  V30 35 Pb 5.0436 0.3669 2.4744 0
M  V30 36 Pd -4.4623 -2.7335 -4.9895 0
M  V30 37 Pb -4.3659 -3.3490 -4.2039 0
M  V30 38 Pb -4.5169 -2.0519 -5.7280 0
M  V30 39 Pb -5.2713 -2.3211 -4.5848 0
M  V30 40 Pb -3.6399 -3.1435 -5.3731 0
M  V30 41 Pd -1.4467 -2.7689 -0.2881 0
M  V30 42 Pb -0.8086 -2.2241 0.2508 0
M  V30 43 Pb -0.7300 -3.4602 -0.4058 0
M  V30 44 Pb -2.0960 -2.0163 -0.1792 0
M  V30 45 Pb -2.1121 -3.3243 -0.7987 0
M  V30 46 Ag -4.4991 2.1264 -2.5603 0
M  V30 47 Fe -3.5425 0.4504 -1.1806 0
M  V30 48 Ag -2.5001 -1.3887 -0.1029 0
M  V30 49 Ag -2.5592 -0.0320 6.1190 0
M  V30 50 Fe -1.6430 -1.2488 7.9201 0
M  V30 51 Ag -0.0829 -2.7744 8.8163 0
M  V30 52 Ag 2.5936 4.4013 -4.0055 0
M  V30 53 Fe 3.8114 4.7706 -2.0275 0
M  V30 54 Ag 4.0562 5.0842 0.2899 0
M  V30 55 Ag 2.0574 -3.9741 6.4028 0
M  V30 56 Fe 3.4516 -2.8613 4.8413 0
M  V30 57 Ag 4.7353 -1.4007 3.4852 0
M  V30 58 Ag 1.5989 -3.4694 -4.4762 0
M  V30 59 Fe -0.6758 -3.5594 -5.1325 0
M  V30 60 Ag -2.9986 -3.4574 -5.5877 0
M  V30 61 Ag -1.6133 1.5136 4.2767 0
M  V30 62 Fe -0.2033 3.1654 3.3154 0
M  V30 63 Ag 1.2752 4.7356 2.3206 0
M  V30 64 Ag 1.2482 3.0636 -5.4148 0
M  V30 65 Fe 1.9627 0.8113 -5.2014 0
M  V30 66 Ag 2.6322 -1.4034 -4.6748 0
M  V30 67 Ag 3.6174 -1.5333 -2.3931 0
M  V30 68 Fe 4.3301 -0.5976 -0.3261 0
M  V30 69 Ag 5.0650 0.3606 1.7227 0
M  V30 70 Ag 2.4548 -2.6372 8.2077 0
M  V30 71 Fe 3.8215 -1.2444 6.8498 0
M  V30 72 Ag 4.9647 0.0386 5.2065 0
M  V30 73 Ba 0.7372 5.3033 -2.7896 0
M  V30 74 Ga 1.2660 5.3675 -1.3892 0
M  V30 75 Ba 1.6985 5.5649 0.0315 0
M  V30 76 Ba -4.7216 1.4363 -5.8822 0
M  V30 77 Ga -4.6457 -0.0244 -6.1214 0
M  V30 78 Ba -4.5647 -1.4996 -6.2430 0
M  V30 79 Ba -0.6608 -0.4509 3.2742 0
M  V30 80 Ga -0.5220 -1.1329 1.9745 0
M  V30 81 Ba -0.3564 -1.8046 0.6724 0
M  V30 82 Ba -5.9311 0.9498 -3.9008 0
M  V30 83 Ga -5.9601 -0.5075 -4.0668 0
M  V30 84 Ba -5.8470 -1.9525 -4.2920 0
M  V30 85 Ba 3.8094 4.5042 2.6711 0
M  V30 86 Ga 4.4412 3.2619 3.1635 0
M  V30 87 Ba 5.1030 2.0515 3.6947 0
M  V30 88 Ba 2.2890 -3.7688 -2.1542 0
M  V30 89 Ga 1.0835 -3.8767 -1.3043 0
M  V30 90 Ba -0.1443 -3.9275 -0.4813 0
M  V30 91 Ba -4.2668 -3.7990 -3.6086 0
M  V30 92 Ga -3.4331 -3.7579 -2.3854 0
M  V30 93 Ba -2.6191 -3.7625 -1.1483 0
M  V30 94 Ba -1.8473 -1.9242 4.9936 0
M  V30 95 Ga -1.1142 -2.8721 5.8780 0
M  V30 96 Ba -0.3854 -3.8263 6.7593 0
M  V30 97 Ba -0.8206 4.4802 -4.6225 0
M  V30 98 Ga -2.1670 3.8672 -4.6013 0
M  V30 99 Ba -3.5745 3.4147 -4.6608 0
M  V30 END ATOM
M  V30 BEGIN BOND
M  V30 1 1 1 2
M  V30 2 1 1 3
M  V30 3 1 1 4
M  V30 4 1 1 5
M  V30 5 1 6 7
M  V30 6 1 6 8
M  V30 7 1 6 9
M  V30 8 1 6 10
M  V30 9 1 11 12
M  V30 10 1 11 13
M  V30 11 1 11 14
M  V30 12 1 11 15
M  V30 13 1 16 17
M  V30 14 1 16 18
M  V30 15 1 16 19
M  V30 16 1 16 20
M  V30 17 1 21 22
M  V30 18 1 21 23
M  V30 19 1 21 24
M  V30 20 1 21 25
M  V30 21 1 26 27
M  V30 22 1 26 28
M  V30 23 1 26 29
M  V30 24 1 26 30
M  V30 25 1 31 32
M  V30 26 1 31 33
M  V30 27 1 31 34
M  V30 28 1 31 35
M  V30 29 1 36 37
M  V30 30 1 36 38
M  V30 31 1 36 39
M  V30 32 1 36 40
M  V30 33 1 41 42
M  V30 34 1 41 43
M  V30 35 1 41 44
M  V30 36 1 41 45
M  V30 37 1 46 47
M  V30 38 1 47 48
M  V30 39 1 49 50
M  V30 40 1 50 51
M  V30 41 1 52 53
M  V30 42 1 53 54
M  V30 43 1 55 56
M  V30 44 1 56 57
M  V30 45 1 58 59
M  V30 46 1 59 60
M  V30 47 1 61 62
M  V30 48 1 62 63
M  V30 49 1 64 65
M  V30 50 1 65 66
M  V30 51 1 67 68
M  V30 52 1 68 69
M  V30 53 1 70 71
M  V30 54 1 71 72
M  V30 55 1 73 74
M  V30 56 1 74 75
M  V30 57 1 76 77
M  V30 58 1 77 78
M  V30 59 1 79 80
M  V30 60 1 80 81
M  V30 61 1 82 83
M  V30 62 1 83 84
M  V30 63 1 85 86
M  V30 64 1 86 87
M  V30 65 1 88 89
M  V30 66 1 89 90
M  V30 67 1 91 92
M  V30 68 1 92 93
M  V30 69 1 94 95
M  V30 70 1 95 96
M  V30 71 1 97 98
M  V30 72 1 98 99
M  V30 73 1 2 73
M  V30 74 1 3 52
M  V30 75 1 4 97
M  V30 76 1 5 64
M  V30 77 1 7 61
M  V30 78 1 8 94
M  V30 79 1 9 49
M  V30 80 1 10 79
M  V30 81 1 12 55
M  V30 82 1 13 51
M  V30 83 1 14 96
M  V30 84 1 15 70
M  V30 85 1 17 58
M  V30 86 1 18 66
M  V30 87 1 19 88
M  V30 88 1 20 67
M  V30 89 1 22 63
M  V30 90 1 23 85
M  V30 91 1 24 75
M  V30 92 1 25 54
M  V30 93 1 27 99
M  V30 94 1 28 82
M  V30 95 1 29 46
M  V30 96 1 30 76
M  V30 97 1 32 72
M  V30 98 1 33 57
M  V30 99 1 34 87
M  V30 100 1 35 69
M  V30 101 1 37 91
M  V30 102 1 38 78
M  V30 103 1 39 84
M  V30 104 1 40 60
M  V30 105 1 42 81
M  V30 106 1 43 90
M  V30 107 1 44 48
M  V30 108 1 45 93
M  V30 END BOND
M  V30 END CTAB
M  END

$$$$
