
     RDKit          3D

  0  0  0  0  0  0  0  0  0  0999 V3000
M  V30 BEGIN CTAB
M  V30 COUNTS 99 108 0 0 0
M  V30 BEGIN ATOM
M  V30 1 Pd -2.2785 -0.8290 3.2195 0
M  V30 2 Pb -1.6031 -0.6454 3.9358 0
M  V30 3 Pb -2.7070 0.0299 3.4787 0
M  V30 4 Pb -1.8349 -1.7001 2.9912 0
M  V30 5 Pb -2.9540 -0.9356 2.4866 0
M  V30 6 Pd -2.1729 -5.1411 -0.5390 0
M  V30 7 Pb -2.5877 -5.4581 -1.3890 0
M  V30 8 Pb -2.2154 -4.1928 -0.8827 0
M  V30 9 Pb -1.7449 -4.8255 0.3110 0
M  V30 10 Pb -1.8972 -6.0853 -0.3578 0
M  V30 11 Pd 1.3671 -2.9166 -3.6558 0
M  V30 12 Pb 1.8823 -2.4323 -2.9520 0
M  V30 13 Pb 0.5049 -2.5058 -3.3234 0
M  V30 14 Pb 2.1629 -3.4931 -3.8146 0
M  V30 15 Pb 0.8596 -3.3865 -4.3745 0
M  V30 16 Pd 2.8750 -1.3867 3.6333 0
M  V30 17 Pb 3.3558 -1.9823 2.9534 0
M  V30 18 Pb 3.2541 -0.5398 3.2515 0
M  V30 19 Pb 2.5238 -2.1881 4.0946 0
M  V30 20 Pb 2.3140 -0.8592 4.2648 0
M  V30 21 Pd 1.9071 2.1797 -2.9209 0
M  V30 22 Pb 1.0123 1.6977 -2.8629 0
M  V30 23 Pb 2.7690 2.6826 -2.9315 0
M  V30 24 Pb 2.3375 1.4235 -2.4330 0
M  V30 25 Pb 1.4694 2.9431 -3.3805 0
M  V30 26 Pd 2.5447 -6.1698 0.0081 0
M  V30 27 Pb 2.2283 -6.3909 0.9190 0
M  V30 28 Pb 3.1168 -5.4061 0.3804 0
M  V30 29 Pb 2.9062 -6.0046 -0.9163 0
M  V30 30 Pb 1.8827 -6.8605 -0.2898 0
M  V30 31 Pd -3.0917 6.3854 1.2791 0
M  V30 32 Pb -2.8998 6.9997 0.5208 0
M  V30 33 Pb -3.9890 6.1283 0.9181 0
M  V30 34 Pb -2.1475 6.5347 1.6253 0
M  V30 35 Pb -3.2786 5.7624 2.0304 0
M  V30 36 Pd -3.8519 2.1632 -1.2332 0
M  V30 37 Pb -4.5900 2.7214 -0.8503 0
M  V30 38 Pb -3.6281 2.9449 -1.8028 0
M  V30 39 Pb -4.1058 1.3501 -0.6980 0
M  V30 40 Pb -3.0672 1.6575 -1.6372 0
M  V30 41 Pd 2.7094 5.7976 0.2187 0
M  V30 42 Pb 3.0805 5.0527 0.7791 0
M  V30 43 Pb 1.9968 6.0395 0.9019 0
M  V30 44 Pb 2.3407 6.5059 -0.3746 0
M  V30 45 Pb 3.3765 5.5489 -0.4816 0
M  V30 46 Ag -2.5931 7.4126 -0.0125 0
M  V30 47 Fe -0.3541 7.5383 -0.7388 0
M  V30 48 Ag 1.9389 6.9909 -0.7663 0
M  V30 49 Ag -2.9891 0.6865 3.6867 0
M  V30 50 Fe -3.2549 2.9864 3.1916 0
M  V30 51 Ag -3.4371 5.2593 2.5546 0
M  V30 52 Ag 3.5495 0.1214 3.0431 0
M  V30 53 Fe 3.4210 2.2910 2.0757 0
M  V30 54 Ag 3.4098 4.4765 1.1362 0
M  V30 55 Ag 2.2710 -2.8248 4.3640 0
M  V30 56 Fe 1.9448 -4.9407 3.4027 0
M  V30 57 Ag 2.0130 -6.4641 1.6190 0
M  V30 58 Ag -2.7435 -5.6211 -2.0955 0
M  V30 59 Fe -1.4915 -4.9597 -3.9727 0
M  V30 60 Ag 0.3724 -3.7736 -4.7782 0
M  V30 61 Ag 1.0238 3.4756 -3.6328 0
M  V30 62 Fe -1.2543 3.8842 -3.2051 0
M  V30 63 Ag -3.3654 3.4746 -2.2475 0
M  V30 64 Ba 3.7285 -2.4317 2.4457 0
M  V30 65 Ga 3.5622 -3.6432 1.5708 0
M  V30 66 Ba 3.5594 -4.8298 0.6472 0
M  V30 67 Ba 2.2800 -2.0517 -2.4463 0
M  V30 68 Ga 2.4792 -0.6106 -2.2271 0
M  V30 69 Ba 2.6329 0.8435 -2.0653 0
M  V30 70 Ba -3.4766 -0.9716 1.9461 0
M  V30 71 Ga -3.8706 -0.1132 0.8054 0
M  V30 72 Ba -4.3042 0.7111 -0.3460 0
M  V30 73 Ba -1.5836 -6.7684 -0.3456 0
M  V30 74 Ga -0.1475 -7.1259 -0.3683 0
M  V30 75 Ba 1.3158 -7.3479 -0.3835 0
M  V30 76 Ba -4.6413 5.8349 0.6877 0
M  V30 77 Ga -4.9262 4.5374 0.0396 0
M  V30 78 Ba -5.0983 3.2203 -0.6089 0
M  V30 79 Ba -2.1669 -3.5036 -1.2028 0
M  V30 80 Ga -1.1672 -2.8693 -2.1117 0
M  V30 81 Ba -0.1507 -2.2614 -3.0201 0
M  V30 82 Ba 3.3856 3.1040 -2.8961 0
M  V30 83 Ga 3.6859 4.2218 -1.9874 0
M  V30 84 Ba 3.8460 5.3148 -1.0151 0
M  V30 85 Ba -1.1116 -0.4332 4.4638 0
M  V30 86 Ga 0.3536 -0.4690 4.6208 0
M  V30 87 Ba 1.8221 -0.5384 4.7250 0
M  V30 88 Ba -1.4460 6.6215 1.9213 0
M  V30 89 Ga -0.0007 6.4147 1.5996 0
M  V30 90 Ba 1.4752 6.2611 1.4175 0
M  V30 91 Ba -1.4789 -2.3519 2.8627 0
M  V30 92 Ga -1.4769 -3.4568 1.8795 0
M  V30 93 Ba -1.4083 -4.6017 0.9457 0
M  V30 94 Ba 0.3610 1.2938 -2.8228 0
M  V30 95 Ga -1.0604 1.3586 -2.3625 0
M  V30 96 Ba -2.4975 1.2588 -1.9606 0
M  V30 97 Ba 2.7126 -3.9981 -3.8104 0
M  V30 98 Ga 3.0022 -4.9595 -2.7264 0
M  V30 99 Ba 3.2183 -5.8856 -1.5949 0
M  V30 END ATOM
M  V30 BEGIN BOND
M  V30 1 1 1 2
M  V30 2 1 1 3
M  V30 3 1 1 4
M  V30 4 1 1 5
M  V30 5 1 6 7
M  V30 6 1 6 8
M  V30 7 1 6 9
M  V30 8 1 6 10
M  V30 9 1 11 12
M  V30 10 1 11 13
M  V30 11 1 11 14
M  V30 12 1 11 15
M  V30 13 1 16 17
M  V30 14 1 16 18
M  V30 15 1 16 19
M  V30 16 1 16 20
M  V30 17 1 21 22
M  V30 18 1 21 23
M  V30 19 1 21 24
M  V30 20 1 21 25
M  V30 21 1 26 27
M  V30 22 1 26 28
M  V30 23 1 26 29
M  V30 24 1 26 30
M  V30 25 1 31 32
M  V30 26 1 31 33
M  V30 27 1 31 34
M  V30 28 1 31 35
M  V30 29 1 36 37
M  V30 30 1 36 38
M  V30 31 1 36 39
M  V30 32 1 36 40
M  V30 33 1 41 42
M  V30 34 1 41 43
M  V30 35 1 41 44
M  V30 36 1 41 45
M  V30 37 1 46 47
M  V30 38 1 47 48
M  V30 39 1 49 50
M  V30 40 1 50 51
M  V30 41 1 52 53
M  V30 42 1 53 54
M  V30 43 1 55 56
M  V30 44 1 56 57
M  V30 45 1 58 59
M  V30 46 1 59 60
M  V30 47 1 61 62
M  V30 48 1 62 63
M  V30 49 1 64 65
M  V30 50 1 65 66
M  V30 51 1 67 68
M  V30 52 1 68 69
M  V30 53 1 70 71
M  V30 54 1 71 72
M  V30 55 1 73 74
M  V30 56 1 74 75
M  V30 57 1 76 77
M  V30 58 1 77 78
M  V30 59 1 79 80
M  V30 60 1 80 81
M  V30 61 1 82 83
M  V30 62 1 83 84
M  V30 63 1 85 86
M  V30 64 1 86 87
M  V30 65 1 88 89
M  V30 66 1 89 90
M  V30 67 1 91 92
M  V30 68 1 92 93
M  V30 69 1 94 95
M  V30 70 1 95 96
M  V30 71 1 97 98
M  V30 72 1 98 99
M  V30 73 1 2 85
M  V30 74 1 3 49
M  V30 75 1 4 91
M  V30 76 1 5 70
M  V30 77 1 7 58
M  V30 78 1 8 79
M  V30 79 1 9 93
M  V30 80 1 10 73
M  V30 81 1 12 67
M  V30 82 1 13 81
M  V30 83 1 14 97
M  V30 84 1 15 60
M  V30 85 1 17 64
M  V30 86 1 18 52
M  V30 87 1 19 55
M  V30 88 1 20 87
M  V30 89 1 22 94
M  V30 90 1 23 82
M  V30 91 1 24 69
M  V30 92 1 25 61
M  V30 93 1 27 57
M  V30 94 1 28 66
M  V30 95 1 29 99
M  V30 96 1 30 75
M  V30 97 1 32 46
M  V30 98 1 33 76
M  V30 99 1 34 88
M  V30 100 1 35 51
M  V30 101 1 37 78
M  V30 102 1 38 63
M  V30 103 1 39 72
M  V30 104 1 40 96
M  V30 105 1 42 54
M  V30 106 1 43 90
M  V30 107 1 44 48
M  V30 108 1 45 84
M  V30 END BOND
M  V30 END CTAB
M  END

$$$$
