
     RDKit          3D

  0  0  0  0  0  0  0  0  0  0999 V3000
M  V30 BEGIN CTAB
M  V30 COUNTS 99 108 0 0 0
M  V30 BEGIN ATOM
M  V30 1 Pd -2.1759 1.3654 -3.1864 0
M  V30 2 Pb -2.0066 1.0829 -4.1314 0
M  V30 3 Pb -2.3099 1.6543 -2.2370 0
M  V30 4 Pb -2.0890 2.3323 -3.4300 0
M  V30 5 Pb -2.3188 0.3995 -2.9637 0
M  V30 6 Pd -4.4872 -1.0096 7.3133 0
M  V30 7 Pb -3.5511 -1.3656 7.3485 0
M  V30 8 Pb -4.1600 -0.0656 7.3820 0
M  V30 9 Pb -4.8392 -1.9206 7.1048 0
M  V30 10 Pb -5.4171 -0.6517 7.2519 0
M  V30 11 Pd 5.6561 -2.6432 -3.3320 0
M  V30 12 Pb 6.2283 -2.1276 -3.9571 0
M  V30 13 Pb 5.1045 -3.1621 -2.6772 0
M  V30 14 Pb 6.3663 -2.5395 -2.6392 0
M  V30 15 Pb 4.8971 -2.6240 -4.0140 0
M  V30 16 Pd 6.0135 2.4463 1.3754 0
M  V30 17 Pb 6.7081 1.7497 1.2090 0
M  V30 18 Pb 5.2444 3.0801 1.4543 0
M  V30 19 Pb 5.7378 1.9429 2.1927 0
M  V30 20 Pb 6.2240 2.8929 0.5057 0
M  V30 21 Pd 1.8371 -3.5892 3.5766 0
M  V30 22 Pb 1.3619 -3.3849 4.4350 0
M  V30 23 Pb 2.2785 -3.8037 2.7022 0
M  V30 24 Pb 2.4906 -2.8611 3.7881 0
M  V30 25 Pb 1.1728 -4.3033 3.3612 0
M  V30 26 Pd 1.7671 5.0855 -3.7953 0
M  V30 27 Pb 1.7747 5.1723 -2.7978 0
M  V30 28 Pb 1.7663 4.9672 -4.7889 0
M  V30 29 Pb 0.7702 5.1282 -3.8272 0
M  V30 30 Pb 2.7618 5.0025 -3.7377 0
M  V30 31 Pd 2.1479 0.7734 -6.7689 0
M  V30 32 Pb 1.1672 0.5942 -6.6625 0
M  V30 33 Pb 1.9491 1.7152 -7.0383 0
M  V30 34 Pb 2.3920 -0.1645 -6.4449 0
M  V30 35 Pb 3.1068 0.9565 -6.9439 0
M  V30 36 Pd -5.0531 -4.4843 1.0463 0
M  V30 37 Pb -4.2998 -5.1055 1.2483 0
M  V30 38 Pb -5.7420 -3.7758 0.8995 0
M  V30 39 Pb -5.4143 -4.6709 1.9592 0
M  V30 40 Pb -4.6156 -4.2288 0.1848 0
M  V30 41 Pd -5.7243 2.0589 3.8437 0
M  V30 42 Pb -5.1596 2.3849 4.6047 0
M  V30 43 Pb -5.0103 2.2976 3.1853 0
M  V30 44 Pb -6.2475 1.6113 3.1201 0
M  V30 45 Pb -6.4100 1.7767 4.5106 0
M  V30 46 Ag -2.8504 -1.6385 7.3658 0
M  V30 47 Fe -0.9235 -2.4316 6.2210 0
M  V30 48 Ag 1.0038 -3.2248 5.0769 0
M  V30 49 Ag 0.6718 -4.8221 3.1599 0
M  V30 50 Fe -1.4970 -5.2687 2.3080 0
M  V30 51 Ag -3.6983 -5.4978 1.4538 0
M  V30 52 Ag 5.5206 1.5072 2.7617 0
M  V30 53 Fe 4.2453 -0.3916 3.4015 0
M  V30 54 Ag 2.9527 -2.2996 3.9757 0
M  V30 55 Ag 4.6490 3.5323 1.3947 0
M  V30 56 Fe 3.1695 4.4443 -0.2251 0
M  V30 57 Ag 1.8534 5.2041 -2.0513 0
M  V30 58 Ag 6.5441 -1.6784 -4.4502 0
M  V30 59 Fe 5.6080 -0.1386 -5.9608 0
M  V30 60 Ag 3.8406 1.0003 -7.0140 0
M  V30 61 Ag 6.2881 3.2191 -0.1665 0
M  V30 62 Fe 5.0153 4.1040 -1.9657 0
M  V30 63 Ag 3.4934 4.9147 -3.5987 0
M  V30 64 Ag 6.8556 -2.3495 -2.1076 0
M  V30 65 Fe 7.1895 -0.6687 -0.4691 0
M  V30 66 Ag 7.1438 1.1711 1.0258 0
M  V30 67 Ag -5.1222 -2.5627 6.8434 0
M  V30 68 Fe -5.4396 -3.7819 4.8317 0
M  V30 69 Ag -5.6061 -4.7649 2.6774 0
M  V30 70 Ag -2.4493 -0.3332 -2.8591 0
M  V30 71 Fe -3.3509 -2.1647 -1.6437 0
M  V30 72 Ag -4.2500 -3.9965 -0.4269 0
M  V30 73 Ag -6.1938 -3.1826 0.8294 0
M  V30 74 Fe -6.5285 -0.9714 1.6242 0
M  V30 75 Ag -6.5962 1.1854 2.6126 0
M  V30 76 Ag -2.3770 1.9248 -1.5391 0
M  V30 77 Fe -3.4524 2.1614 0.5663 0
M  V30 78 Ag -4.4623 2.4530 2.6971 0
M  V30 79 Ag 4.7262 -3.5605 -2.1647 0
M  V30 80 Fe 3.6464 -3.7319 -0.0537 0
M  V30 81 Ag 2.5445 -4.0223 2.0328 0
M  V30 82 Ba -1.8804 0.8369 -4.8294 0
M  V30 83 Ga -0.7072 0.6689 -5.7114 0
M  V30 84 Ba 0.4244 0.4747 -6.6410 0
M  V30 85 Ba 4.3180 -2.6153 -4.5222 0
M  V30 86 Ga 3.4797 -1.6818 -5.3448 0
M  V30 87 Ba 2.5622 -0.8834 -6.2231 0
M  V30 88 Ba -6.0974 -0.3548 7.1605 0
M  V30 89 Ga -6.5651 0.5873 6.1328 0
M  V30 90 Ba -6.8709 1.5242 5.0414 0
M  V30 91 Ba -3.9659 0.6599 7.3466 0
M  V30 92 Ga -4.3137 1.6580 6.3125 0
M  V30 93 Ba -4.7385 2.5442 5.2077 0
M  V30 94 Ba -2.0600 3.0654 -3.5900 0
M  V30 95 Ga -1.0153 4.0968 -3.7297 0
M  V30 96 Ba 0.0231 5.1340 -3.8718 0
M  V30 97 Ba 1.7283 4.8591 -5.5308 0
M  V30 98 Ga 1.7809 3.6612 -6.3903 0
M  V30 99 Ba 1.8403 2.4366 -7.2108 0
M  V30 END ATOM
M  V30 BEGIN BOND
M  V30 1 1 1 2
M  V30 2 1 1 3
M  V30 3 1 1 4
M  V30 4 1 1 5
M  V30 5 1 6 7
M  V30 6 1 6 8
M  V30 7 1 6 9
M  V30 8 1 6 10
M  V30 9 1 11 12
M  V30 10 1 11 13
M  V30 11 1 11 14
M  V30 12 1 11 15
M  V30 13 1 16 17
M  V30 14 1 16 18
M  V30 15 1 16 19
M  V30 16 1 16 20
M  V30 17 1 21 22
M  V30 18 1 21 23
M  V30 19 1 21 24
M  V30 20 1 21 25
M  V30 21 1 26 27
M  V30 22 1 26 28
M  V30 23 1 26 29
M  V30 24 1 26 30
M  V30 25 1 31 32
M  V30 26 1 31 33
M  V30 27 1 31 34
M  V30 28 1 31 35
M  V30 29 1 36 37
M  V30 30 1 36 38
M  V30 31 1 36 39
M  V30 32 1 36 40
M  V30 33 1 41 42
M  V30 34 1 41 43
M  V30 35 1 41 44
M  V30 36 1 41 45
M  V30 37 1 46 47
M  V30 38 1 47 48
M  V30 39 1 49 50
M  V30 40 1 50 51
M  V30 41 1 52 53
M  V30 42 1 53 54
M  V30 43 1 55 56
M  V30 44 1 56 57
M  V30 45 1 58 59
M  V30 46 1 59 60
M  V30 47 1 61 62
M  V30 48 1 62 63
M  V30 49 1 64 65
M  V30 50 1 65 66
M  V30 51 1 67 68
M  V30 52 1 68 69
M  V30 53 1 70 71
M  V30 54 1 71 72
M  V30 55 1 73 74
M  V30 56 1 74 75
M  V30 57 1 76 77
M  V30 58 1 77 78
M  V30 59 1 79 80
M  V30 60 1 80 81
M  V30 61 1 82 83
M  V30 62 1 83 84
M  V30 63 1 85 86
M  V30 64 1 86 87
M  V30 65 1 88 89
M  V30 66 1 89 90
M  V30 67 1 91 92
M  V30 68 1 92 93
M  V30 69 1 94 95
M  V30 70 1 95 96
M  V30 71 1 97 98
M  V30 72 1 98 99
M  V30 73 1 2 82
M  V30 74 1 3 76
M  V30 75 1 4 94
M  V30 76 1 5 70
M  V30 77 1 7 46
M  V30 78 1 8 91
M  V30 79 1 9 67
M  V30 80 1 10 88
M  V30 81 1 12 58
M  V30 82 1 13 79
M  V30 83 1 14 64
M  V30 84 1 15 85
M  V30 85 1 17 66
M  V30 86 1 18 55
M  V30 87 1 19 52
M  V30 88 1 20 61
M  V30 89 1 22 48
M  V30 90 1 23 81
M  V30 91 1 24 54
M  V30 92 1 25 49
M  V30 93 1 27 57
M  V30 94 1 28 97
M  V30 95 1 29 96
M  V30 96 1 30 63
M  V30 97 1 32 84
M  V30 98 1 33 99
M  V30 99 1 34 87
M  V30 100 1 35 60
M  V30 101 1 37 51
M  V30 102 1 38 73
M  V30 103 1 39 69
M  V30 104 1 40 72
M  V30 105 1 42 93
M  V30 106 1 43 78
M  V30 107 1 44 75
M  V30 108 1 45 90
M  V30 END BOND
M  V30 END CTAB
M  END

$$$$
