
     RDKit          3D

  0  0  0  0  0  0  0  0  0  0999 V3000
M  V30 BEGIN CTAB
M  V30 COUNTS 99 108 0 0 0
M  V30 BEGIN ATOM
M  V30 1 Pd -1.2297 0.4170 3.5971 0
M  V30 2 Pb -1.6030 -0.2702 4.2177 0
M  V30 3 Pb -0.8300 1.0433 2.9257 0
M  V30 4 Pb -0.5037 0.6512 4.2460 0
M  V30 5 Pb -1.9844 0.1992 2.9796 0
M  V30 6 Pd -0.6905 6.9594 -3.6766 0
M  V30 7 Pb -0.3593 6.1103 -4.0958 0
M  V30 8 Pb 0.0574 6.9452 -2.9922 0
M  V30 9 Pb -1.5555 6.8857 -4.1700 0
M  V30 10 Pb -1.0033 7.8220 -3.2886 0
M  V30 11 Pd 0.6762 -5.7957 -1.6330 0
M  V30 12 Pb 0.0662 -5.6445 -0.8230 0
M  V30 13 Pb 0.0746 -5.2784 -2.2465 0
M  V30 14 Pb 1.3154 -5.9340 -2.3866 0
M  V30 15 Pb 1.2841 -6.3443 -1.0766 0
M  V30 16 Pd 4.5981 -2.9239 -2.3260 0
M  V30 17 Pb 4.4431 -3.7640 -2.8420 0
M  V30 18 Pb 4.6975 -2.0890 -1.7859 0
M  V30 19 Pb 4.3441 -2.4133 -3.1445 0
M  V30 20 Pb 4.8068 -3.4285 -1.4875 0
M  V30 21 Pd -0.1093 -0.8702 -4.7759 0
M  V30 22 Pb 0.0966 0.0885 -4.9855 0
M  V30 23 Pb -0.3529 -1.8186 -4.5493 0
M  V30 24 Pb 0.8736 -1.0530 -4.8439 0
M  V30 25 Pb -1.0882 -0.6720 -4.7983 0
M  V30 26 Pd 3.5932 -1.5162 4.7047 0
M  V30 27 Pb 3.8755 -0.9568 3.9257 0
M  V30 28 Pb 3.2744 -2.0994 5.4519 0
M  V30 29 Pb 3.1174 -0.7407 5.1152 0
M  V30 30 Pb 4.0127 -2.2919 4.2330 0
M  V30 31 Pd -0.0756 -4.8399 4.3369 0
M  V30 32 Pb -0.7885 -4.1848 4.5940 0
M  V30 33 Pb 0.3832 -4.6492 5.2030 0
M  V30 34 Pb 0.6298 -5.5084 4.1484 0
M  V30 35 Pb -0.4754 -4.9907 3.4055 0
M  V30 36 Pd -5.9936 2.7169 -1.7954 0
M  V30 37 Pb -5.8605 2.1210 -2.5821 0
M  V30 38 Pb -5.9925 3.2811 -0.9696 0
M  V30 39 Pb -5.9643 3.5039 -2.4133 0
M  V30 40 Pb -5.8892 1.9267 -1.1972 0
M  V30 41 Pd -0.7285 5.8943 1.6556 0
M  V30 42 Pb 0.0266 6.1598 1.0335 0
M  V30 43 Pb -0.4645 4.9348 1.5453 0
M  V30 44 Pb -1.6072 5.6414 2.0557 0
M  V30 45 Pb -0.9952 6.8514 1.7290 0
M  V30 46 Ag -0.0975 5.4936 -4.4399 0
M  V30 47 Fe 0.0524 3.1412 -4.7559 0
M  V30 48 Ag 0.2647 0.8046 -5.1448 0
M  V30 49 Ag -1.8230 -0.5337 -4.8473 0
M  V30 50 Fe -3.7847 0.5345 -4.0484 0
M  V30 51 Ag -5.6608 1.6643 -3.1369 0
M  V30 52 Ag 4.7448 -1.5137 -1.3082 0
M  V30 53 Fe 4.4501 -0.9215 0.9720 0
M  V30 54 Ag 4.0804 -0.6057 3.2959 0
M  V30 55 Ag 1.6950 -6.7095 -0.5861 0
M  V30 56 Fe 1.7781 -6.6875 1.7617 0
M  V30 57 Ag 1.1334 -5.9909 3.9108 0
M  V30 58 Ag -1.2094 8.3980 -2.8693 0
M  V30 59 Fe -1.3829 8.5533 -0.5278 0
M  V30 60 Ag -1.1931 7.5519 1.5923 0
M  V30 61 Ag 4.9347 -3.7390 -0.8162 0
M  V30 62 Fe 4.6789 -3.4080 1.5222 0
M  V30 63 Ag 4.3008 -2.8282 3.7946 0
M  V30 64 Ag -2.2632 6.7801 -4.3917 0
M  V30 65 Fe -4.1609 5.4892 -3.7802 0
M  V30 66 Ag -5.8408 4.0510 -2.9130 0
M  V30 67 Ag -2.5806 0.0312 2.5579 0
M  V30 68 Fe -4.1805 0.6384 0.9142 0
M  V30 69 Ag -5.7183 1.3595 -0.7426 0
M  V30 70 Ag -5.8875 3.6219 -0.3091 0
M  V30 71 Fe -4.2213 4.5843 1.0830 0
M  V30 72 Ag -2.3270 5.4883 2.1938 0
M  V30 73 Ba -1.9003 -0.8237 4.6247 0
M  V30 74 Ga -1.5997 -2.2637 4.7414 0
M  V30 75 Ba -1.3032 -3.7045 4.8585 0
M  V30 76 Ba 4.1360 -2.0622 -3.7710 0
M  V30 77 Ga 2.8535 -1.5995 -4.3350 0
M  V30 78 Ba 1.6135 -1.1113 -4.9678 0
M  V30 79 Ba 0.5725 6.9241 -2.4267 0
M  V30 80 Ga 0.5496 6.6375 -0.9587 0
M  V30 81 Ba 0.5498 6.3548 0.5103 0
M  V30 82 Ba -0.4232 -5.5437 -0.2311 0
M  V30 83 Ga -0.5153 -5.3177 1.2526 0
M  V30 84 Ba -0.8028 -5.0918 2.7112 0
M  V30 85 Ba 1.8471 -6.0205 -2.9050 0
M  V30 86 Ga 3.0749 -5.2397 -3.1232 0
M  V30 87 Ba 4.2605 -4.3753 -3.2322 0
M  V30 88 Ba 0.0322 0.8437 4.7365 0
M  V30 89 Ga 1.3787 0.3475 5.0771 0
M  V30 90 Ba 2.7221 -0.1709 5.3961 0
M  V30 91 Ba -0.4982 1.4622 2.3974 0
M  V30 92 Ga -0.4073 2.8674 1.9532 0
M  V30 93 Ba -0.2359 4.2314 1.4143 0
M  V30 94 Ba 2.9929 -2.5389 5.9904 0
M  V30 95 Ga 1.8933 -3.5197 5.9620 0
M  V30 96 Ba 0.7804 -4.4742 5.8128 0
M  V30 97 Ba -0.3697 -4.9441 -2.7543 0
M  V30 98 Ga -0.4427 -3.6924 -3.5410 0
M  V30 99 Ba -0.6426 -2.4978 -4.3915 0
M  V30 END ATOM
M  V30 BEGIN BOND
M  V30 1 1 1 2
M  V30 2 1 1 3
M  V30 3 1 1 4
M  V30 4 1 1 5
M  V30 5 1 6 7
M  V30 6 1 6 8
M  V30 7 1 6 9
M  V30 8 1 6 10
M  V30 9 1 11 12
M  V30 10 1 11 13
M  V30 11 1 11 14
M  V30 12 1 11 15
M  V30 13 1 16 17
M  V30 14 1 16 18
M  V30 15 1 16 19
M  V30 16 1 16 20
M  V30 17 1 21 22
M  V30 18 1 21 23
M  V30 19 1 21 24
M  V30 20 1 21 25
M  V30 21 1 26 27
M  V30 22 1 26 28
M  V30 23 1 26 29
M  V30 24 1 26 30
M  V30 25 1 31 32
M  V30 26 1 31 33
M  V30 27 1 31 34
M  V30 28 1 31 35
M  V30 29 1 36 37
M  V30 30 1 36 38
M  V30 31 1 36 39
M  V30 32 1 36 40
M  V30 33 1 41 42
M  V30 34 1 41 43
M  V30 35 1 41 44
M  V30 36 1 41 45
M  V30 37 1 46 47
M  V30 38 1 47 48
M  V30 39 1 49 50
M  V30 40 1 50 51
M  V30 41 1 52 53
M  V30 42 1 53 54
M  V30 43 1 55 56
M  V30 44 1 56 57
M  V30 45 1 58 59
M  V30 46 1 59 60
M  V30 47 1 61 62
M  V30 48 1 62 63
M  V30 49 1 64 65
M  V30 50 1 65 66
M  V30 51 1 67 68
M  V30 52 1 68 69
M  V30 53 1 70 71
M  V30 54 1 71 72
M  V30 55 1 73 74
M  V30 56 1 74 75
M  V30 57 1 76 77
M  V30 58 1 77 78
M  V30 59 1 79 80
M  V30 60 1 80 81
M  V30 61 1 82 83
M  V30 62 1 83 84
M  V30 63 1 85 86
M  V30 64 1 86 87
M  V30 65 1 88 89
M  V30 66 1 89 90
M  V30 67 1 91 92
M  V30 68 1 92 93
M  V30 69 1 94 95
M  V30 70 1 95 96
M  V30 71 1 97 98
M  V30 72 1 98 99
M  V30 73 1 2 73
M  V30 74 1 3 91
M  V30 75 1 4 88
M  V30 76 1 5 67
M  V30 77 1 7 46
M  V30 78 1 8 79
M  V30 79 1 9 64
M  V30 80 1 10 58
M  V30 81 1 12 82
M  V30 82 1 13 97
M  V30 83 1 14 85
M  V30 84 1 15 55
M  V30 85 1 17 87
M  V30 86 1 18 52
M  V30 87 1 19 76
M  V30 88 1 20 61
M  V30 89 1 22 48
M  V30 90 1 23 99
M  V30 91 1 24 78
M  V30 92 1 25 49
M  V30 93 1 27 54
M  V30 94 1 28 94
M  V30 95 1 29 90
M  V30 96 1 30 63
M  V30 97 1 32 75
M  V30 98 1 33 96
M  V30 99 1 34 57
M  V30 100 1 35 84
M  V30 101 1 37 51
M  V30 102 1 38 70
M  V30 103 1 39 66
M  V30 104 1 40 69
M  V30 105 1 42 81
M  V30 106 1 43 93
M  V30 107 1 44 72
M  V30 108 1 45 60
M  V30 END BOND
M  V30 END CTAB
M  END

$$$$
