
     RDKit          3D

  0  0  0  0  0  0  0  0  0  0999 V3000
M  V30 BEGIN CTAB
M  V30 COUNTS 99 108 0 0 0
M  V30 BEGIN ATOM
M  V30 1 Pd 3.0681 6.5550 2.9817 0
M  V30 2 Pb 3.5929 6.1427 3.7237 0
M  V30 3 Pb 3.8635 6.3893 2.4034 0
M  V30 4 Pb 2.5124 6.8415 2.1998 0
M  V30 5 Pb 2.2686 6.6786 3.5657 0
M  V30 6 Pd -1.4496 4.6167 1.9791 0
M  V30 7 Pb -1.6793 4.0138 1.1844 0
M  V30 8 Pb -0.9631 5.2664 1.3911 0
M  V30 9 Pb -1.2140 5.1903 2.7623 0
M  V30 10 Pb -1.8905 3.9827 2.5995 0
M  V30 11 Pd -1.4589 -3.9900 3.6426 0
M  V30 12 Pb -2.3988 -3.7855 3.9184 0
M  V30 13 Pb -1.8052 -4.7664 3.1145 0
M  V30 14 Pb -0.5123 -4.1571 3.3557 0
M  V30 15 Pb -1.1087 -3.2148 4.1649 0
M  V30 16 Pd -4.8539 0.4420 -0.9450 0
M  V30 17 Pb -5.6923 -0.1038 -0.9397 0
M  V30 18 Pb -4.8857 0.5589 -1.9425 0
M  V30 19 Pb -4.0371 1.0538 -0.8872 0
M  V30 20 Pb -4.8314 0.3074 0.0360 0
M  V30 21 Pd 6.7097 1.0685 -0.8118 0
M  V30 22 Pb 7.1724 0.6806 -0.0126 0
M  V30 23 Pb 6.6393 0.1717 -1.2506 0
M  V30 24 Pb 6.7663 1.9907 -0.4342 0
M  V30 25 Pb 6.1892 1.4334 -1.5808 0
M  V30 26 Pd -5.8501 -4.3668 0.8988 0
M  V30 27 Pb -6.4868 -3.6305 0.6733 0
M  V30 28 Pb -5.1648 -5.0746 1.0730 0
M  V30 29 Pb -5.9517 -4.6435 -0.0524 0
M  V30 30 Pb -5.7369 -4.0529 1.8414 0
M  V30 31 Pd -3.4760 -2.1867 -5.8190 0
M  V30 32 Pb -2.6944 -1.6819 -6.2289 0
M  V30 33 Pb -3.0944 -3.0336 -6.1712 0
M  V30 34 Pb -4.1865 -2.7336 -5.3840 0
M  V30 35 Pb -3.8730 -1.3362 -5.4597 0
M  V30 36 Pd 2.4039 -1.7063 -6.0233 0
M  V30 37 Pb 2.1867 -2.6301 -6.3173 0
M  V30 38 Pb 1.5219 -1.3791 -6.4097 0
M  V30 39 Pb 2.6484 -0.7838 -5.7335 0
M  V30 40 Pb 3.2251 -2.0239 -5.5470 0
M  V30 41 Pd 4.9392 -0.3720 4.0754 0
M  V30 42 Pb 5.8274 -0.4055 3.6109 0
M  V30 43 Pb 5.1605 0.5194 4.4715 0
M  V30 44 Pb 4.0429 -0.3356 4.5143 0
M  V30 45 Pb 4.6544 -1.2505 3.6855 0
M  V30 46 Ag 6.5454 -0.4538 -1.6555 0
M  V30 47 Fe 5.2457 -1.4373 -3.3850 0
M  V30 48 Ag 3.8154 -2.2066 -5.1199 0
M  V30 49 Ag -2.6957 -3.6106 -6.4069 0
M  V30 50 Fe -0.3747 -3.9248 -6.6415 0
M  V30 51 Ag 1.8835 -3.2717 -6.5250 0
M  V30 52 Ag 5.7575 1.6505 -2.1514 0
M  V30 53 Fe 4.3022 0.8860 -3.8609 0
M  V30 54 Ag 2.8974 -0.1256 -5.4821 0
M  V30 55 Ag -2.2496 3.4579 2.9727 0
M  V30 56 Fe -3.6198 1.6709 2.2973 0
M  V30 57 Ag -4.7639 0.2974 0.7703 0
M  V30 58 Ag -6.0490 -4.7570 -0.7833 0
M  V30 59 Fe -5.4130 -4.0400 -2.9514 0
M  V30 60 Ag -4.6556 -3.1969 -5.0335 0
M  V30 61 Ag 0.2152 -4.2119 3.1678 0
M  V30 62 Fe 2.3341 -3.1333 3.2444 0
M  V30 63 Ag 4.3544 -1.8905 3.4262 0
M  V30 64 Ag -0.7810 -2.6481 4.5270 0
M  V30 65 Fe 1.2408 -1.4264 4.7488 0
M  V30 66 Ag 3.3531 -0.3470 4.8045 0
M  V30 67 Ag 4.4777 6.2076 2.0182 0
M  V30 68 Fe 5.6672 4.4895 0.8950 0
M  V30 69 Ag 6.7749 2.7030 -0.2052 0
M  V30 70 Ag 4.0009 5.7367 4.2016 0
M  V30 71 Fe 4.7067 3.5047 4.5959 0
M  V30 72 Ag 5.2627 1.2028 4.7633 0
M  V30 73 Ba -2.1009 -5.3371 2.7265 0
M  V30 74 Ga -3.3539 -5.4850 1.9605 0
M  V30 75 Ba -4.6207 -5.5736 1.2082 0
M  V30 76 Ba -1.7907 3.5710 0.5611 0
M  V30 77 Ga -2.6726 2.5394 -0.0792 0
M  V30 78 Ba -3.4182 1.5143 -0.8828 0
M  V30 79 Ba 7.4937 0.3812 0.5976 0
M  V30 80 Ga 6.9965 -0.0204 1.9305 0
M  V30 81 Ba 6.4945 -0.4206 3.2621 0
M  V30 82 Ba -4.9121 0.6694 -2.6887 0
M  V30 83 Ga -4.5314 -0.0455 -3.9289 0
M  V30 84 Ba -4.1810 -0.6920 -5.2146 0
M  V30 85 Ba 1.6386 6.7460 3.9624 0
M  V30 86 Ga 0.2951 6.2045 3.7000 0
M  V30 87 Ba -1.0058 5.6157 3.3424 0
M  V30 88 Ba -6.3308 -0.4874 -0.8436 0
M  V30 89 Ga -6.6569 -1.7851 -0.2209 0
M  V30 90 Ba -6.9350 -3.0908 0.4085 0
M  V30 91 Ba 2.0558 6.9859 1.6206 0
M  V30 92 Ga 0.7409 6.4092 1.2695 0
M  V30 93 Ba -0.5678 5.7756 1.0029 0
M  V30 94 Ba -3.1115 -3.6339 4.0987 0
M  V30 95 Ga -4.3784 -3.7210 3.3475 0
M  V30 96 Ba -5.6126 -3.8293 2.5464 0
M  V30 97 Ba -2.1123 -1.3108 -6.5621 0
M  V30 98 Ga -0.6177 -1.2597 -6.5783 0
M  V30 99 Ba 0.8651 -1.1042 -6.6945 0
M  V30 END ATOM
M  V30 BEGIN BOND
M  V30 1 1 1 2
M  V30 2 1 1 3
M  V30 3 1 1 4
M  V30 4 1 1 5
M  V30 5 1 6 7
M  V30 6 1 6 8
M  V30 7 1 6 9
M  V30 8 1 6 10
M  V30 9 1 11 12
M  V30 10 1 11 13
M  V30 11 1 11 14
M  V30 12 1 11 15
M  V30 13 1 16 17
M  V30 14 1 16 18
M  V30 15 1 16 19
M  V30 16 1 16 20
M  V30 17 1 21 22
M  V30 18 1 21 23
M  V30 19 1 21 24
M  V30 20 1 21 25
M  V30 21 1 26 27
M  V30 22 1 26 28
M  V30 23 1 26 29
M  V30 24 1 26 30
M  V30 25 1 31 32
M  V30 26 1 31 33
M  V30 27 1 31 34
M  V30 28 1 31 35
M  V30 29 1 36 37
M  V30 30 1 36 38
M  V30 31 1 36 39
M  V30 32 1 36 40
M  V30 33 1 41 42
M  V30 34 1 41 43
M  V30 35 1 41 44
M  V30 36 1 41 45
M  V30 37 1 46 47
M  V30 38 1 47 48
M  V30 39 1 49 50
M  V30 40 1 50 51
M  V30 41 1 52 53
M  V30 42 1 53 54
M  V30 43 1 55 56
M  V30 44 1 56 57
M  V30 45 1 58 59
M  V30 46 1 59 60
M  V30 47 1 61 62
M  V30 48 1 62 63
M  V30 49 1 64 65
M  V30 50 1 65 66
M  V30 51 1 67 68
M  V30 52 1 68 69
M  V30 53 1 70 71
M  V30 54 1 71 72
M  V30 55 1 73 74
M  V30 56 1 74 75
M  V30 57 1 76 77
M  V30 58 1 77 78
M  V30 59 1 79 80
M  V30 60 1 80 81
M  V30 61 1 82 83
M  V30 62 1 83 84
M  V30 63 1 85 86
M  V30 64 1 86 87
M  V30 65 1 88 89
M  V30 66 1 89 90
M  V30 67 1 91 92
M  V30 68 1 92 93
M  V30 69 1 94 95
M  V30 70 1 95 96
M  V30 71 1 97 98
M  V30 72 1 98 99
M  V30 73 1 2 70
M  V30 74 1 3 67
M  V30 75 1 4 91
M  V30 76 1 5 85
M  V30 77 1 7 76
M  V30 78 1 8 93
M  V30 79 1 9 87
M  V30 80 1 10 55
M  V30 81 1 12 94
M  V30 82 1 13 73
M  V30 83 1 14 61
M  V30 84 1 15 64
M  V30 85 1 17 88
M  V30 86 1 18 82
M  V30 87 1 19 78
M  V30 88 1 20 57
M  V30 89 1 22 79
M  V30 90 1 23 46
M  V30 91 1 24 69
M  V30 92 1 25 52
M  V30 93 1 27 90
M  V30 94 1 28 75
M  V30 95 1 29 58
M  V30 96 1 30 96
M  V30 97 1 32 97
M  V30 98 1 33 49
M  V30 99 1 34 60
M  V30 100 1 35 84
M  V30 101 1 37 51
M  V30 102 1 38 99
M  V30 103 1 39 54
M  V30 104 1 40 48
M  V30 105 1 42 81
M  V30 106 1 43 72
M  V30 107 1 44 66
M  V30 108 1 45 63
M  V30 END BOND
M  V30 END CTAB
M  END

$$$$
