
     RDKit          3D

  0  0  0  0  0  0  0  0  0  0999 V3000
M  V30 BEGIN CTAB
M  V30 COUNTS 99 108 0 0 0
M  V30 BEGIN ATOM
M  V30 1 Pd -1.0594 -1.9174 4.4343 0
M  V30 2 Pb -1.7170 -2.4604 3.9162 0
M  V30 3 Pb -0.4883 -2.7347 4.4475 0
M  V30 4 Pb -1.7082 -1.1544 4.4559 0
M  V30 5 Pb -0.3419 -1.3490 4.8410 0
M  V30 6 Pd -2.1036 3.7999 3.9297 0
M  V30 7 Pb -1.7134 4.6980 3.7474 0
M  V30 8 Pb -1.1880 3.4259 3.7828 0
M  V30 9 Pb -2.5002 2.8990 4.1073 0
M  V30 10 Pb -3.0129 4.1999 3.8168 0
M  V30 11 Pd 0.2345 5.4176 -1.8818 0
M  V30 12 Pb 0.0324 4.6167 -2.4402 0
M  V30 13 Pb 0.8360 4.8650 -1.3020 0
M  V30 14 Pb -0.5235 5.9159 -2.2974 0
M  V30 15 Pb 0.3473 6.1583 -1.2285 0
M  V30 16 Pd -3.6170 -1.2029 -2.1486 0
M  V30 17 Pb -3.5763 -0.3538 -2.6789 0
M  V30 18 Pb -3.2400 -1.7330 -2.9134 0
M  V30 19 Pb -4.0094 -0.6976 -1.3816 0
M  V30 20 Pb -3.6548 -2.0050 -1.5578 0
M  V30 21 Pd 2.7610 0.7499 -2.7872 0
M  V30 22 Pb 3.7040 0.4533 -2.7280 0
M  V30 23 Pb 2.6973 0.3133 -3.6832 0
M  V30 24 Pb 1.8355 1.0958 -2.9259 0
M  V30 25 Pb 2.8052 1.1206 -1.8310 0
M  V30 26 Pd -4.2931 3.9659 -0.6853 0
M  V30 27 Pb -4.5299 3.0993 -0.2536 0
M  V30 28 Pb -4.0730 3.4762 -1.5347 0
M  V30 29 Pb -4.0466 4.8203 -1.1512 0
M  V30 30 Pb -4.5325 4.4250 0.1791 0
M  V30 31 Pd 3.0555 -6.4451 0.2257 0
M  V30 32 Pb 2.2569 -6.7070 -0.3165 0
M  V30 33 Pb 3.7972 -6.1212 0.8114 0
M  V30 34 Pb 3.5364 -6.2280 -0.6238 0
M  V30 35 Pb 2.5570 -6.5458 1.0809 0
M  V30 36 Pd 4.0984 -0.1981 2.9396 0
M  V30 37 Pb 4.4549 -1.0080 3.3972 0
M  V30 38 Pb 3.7168 0.5041 2.3031 0
M  V30 39 Pb 3.3614 -0.0863 3.6157 0
M  V30 40 Pb 4.8814 -0.3027 2.3432 0
M  V30 41 Pd 1.0209 -4.1016 -3.9734 0
M  V30 42 Pb 0.0835 -3.8271 -4.2070 0
M  V30 43 Pb 1.9562 -4.3945 -3.7588 0
M  V30 44 Pb 0.6825 -4.8830 -3.4478 0
M  V30 45 Pb 1.3746 -3.3372 -4.5159 0
M  V30 46 Ag -0.1537 -3.4029 4.4244 0
M  V30 47 Fe 1.0380 -5.0189 3.1635 0
M  V30 48 Ag 2.2381 -6.4990 1.7529 0
M  V30 49 Ag 4.2372 -5.8343 1.3463 0
M  V30 50 Fe 4.6371 -3.8490 2.5831 0
M  V30 51 Ag 4.7434 -1.6814 3.5423 0
M  V30 52 Ag -0.5222 3.2474 3.4864 0
M  V30 53 Fe 0.5599 3.7094 1.4214 0
M  V30 54 Ag 1.1529 4.4573 -0.7555 0
M  V30 55 Ag -1.4001 5.3369 3.5278 0
M  V30 56 Fe -0.4462 6.2703 1.5759 0
M  V30 57 Ag 0.3431 6.5948 -0.6285 0
M  V30 58 Ag -2.1422 -2.8527 3.4424 0
M  V30 59 Fe -2.9945 -2.8475 1.2293 0
M  V30 60 Ag -3.6866 -2.5165 -1.0145 0
M  V30 61 Ag 4.3933 0.2487 -2.5694 0
M  V30 62 Fe 5.4199 -0.1909 -0.5048 0
M  V30 63 Ag 5.4087 -0.3838 1.8348 0
M  V30 64 Ba 1.6475 -6.8590 -0.7270 0
M  V30 65 Ga 1.0357 -6.1902 -1.8915 0
M  V30 66 Ba 0.4646 -5.4844 -3.0549 0
M  V30 67 Ba -3.5489 0.3067 -3.0376 0
M  V30 68 Ga -3.7316 1.7108 -2.6068 0
M  V30 69 Ba -3.9137 3.1156 -2.1784 0
M  V30 70 Ba -2.9900 -2.1336 -3.5010 0
M  V30 71 Ga -1.7764 -2.8719 -3.9163 0
M  V30 72 Ba -0.6129 -3.6339 -4.4225 0
M  V30 73 Ba -0.1535 3.9842 -2.7923 0
M  V30 74 Ga 0.4994 2.6750 -2.9546 0
M  V30 75 Ba 1.1642 1.3707 -3.1087 0
M  V30 76 Ba 0.2002 -0.8973 5.1009 0
M  V30 77 Ga 1.5293 -0.4647 4.6116 0
M  V30 78 Ba 2.8636 0.0082 4.1774 0
M  V30 79 Ba -4.3108 -0.3497 -0.7907 0
M  V30 80 Ga -4.5077 1.0454 -0.3646 0
M  V30 81 Ba -4.7020 2.4423 0.0565 0
M  V30 82 Ba -3.6536 4.5269 3.5994 0
M  V30 83 Ga -4.2266 4.6360 2.2366 0
M  V30 84 Ba -4.7433 4.7101 0.8489 0
M  V30 85 Ba 2.6289 -0.0542 -4.3320 0
M  V30 86 Ga 2.1382 -1.4091 -4.6492 0
M  V30 87 Ba 1.6412 -2.7696 -4.9306 0
M  V30 88 Ba 3.8447 -6.0191 -1.2752 0
M  V30 89 Ga 3.2705 -5.3295 -2.4494 0
M  V30 90 Ba 2.6510 -4.6384 -3.5995 0
M  V30 91 Ba 2.8143 1.4262 -1.1179 0
M  V30 92 Ga 3.1528 1.1473 0.3212 0
M  V30 93 Ba 3.4434 1.0148 1.7916 0
M  V30 94 Ba -2.2552 -0.6397 4.4897 0
M  V30 95 Ga -2.4814 0.8128 4.3547 0
M  V30 96 Ba -2.8349 2.2419 4.2448 0
M  V30 97 Ba -1.1638 6.2522 -2.4913 0
M  V30 98 Ga -2.5282 5.8846 -2.0595 0
M  V30 99 Ba -3.8392 5.4186 -1.5609 0
M  V30 END ATOM
M  V30 BEGIN BOND
M  V30 1 1 1 2
M  V30 2 1 1 3
M  V30 3 1 1 4
M  V30 4 1 1 5
M  V30 5 1 6 7
M  V30 6 1 6 8
M  V30 7 1 6 9
M  V30 8 1 6 10
M  V30 9 1 11 12
M  V30 10 1 11 13
M  V30 11 1 11 14
M  V30 12 1 11 15
M  V30 13 1 16 17
M  V30 14 1 16 18
M  V30 15 1 16 19
M  V30 16 1 16 20
M  V30 17 1 21 22
M  V30 18 1 21 23
M  V30 19 1 21 24
M  V30 20 1 21 25
M  V30 21 1 26 27
M  V30 22 1 26 28
M  V30 23 1 26 29
M  V30 24 1 26 30
M  V30 25 1 31 32
M  V30 26 1 31 33
M  V30 27 1 31 34
M  V30 28 1 31 35
M  V30 29 1 36 37
M  V30 30 1 36 38
M  V30 31 1 36 39
M  V30 32 1 36 40
M  V30 33 1 41 42
M  V30 34 1 41 43
M  V30 35 1 41 44
M  V30 36 1 41 45
M  V30 37 1 46 47
M  V30 38 1 47 48
M  V30 39 1 49 50
M  V30 40 1 50 51
M  V30 41 1 52 53
M  V30 42 1 53 54
M  V30 43 1 55 56
M  V30 44 1 56 57
M  V30 45 1 58 59
M  V30 46 1 59 60
M  V30 47 1 61 62
M  V30 48 1 62 63
M  V30 49 1 64 65
M  V30 50 1 65 66
M  V30 51 1 67 68
M  V30 52 1 68 69
M  V30 53 1 70 71
M  V30 54 1 71 72
M  V30 55 1 73 74
M  V30 56 1 74 75
M  V30 57 1 76 77
M  V30 58 1 77 78
M  V30 59 1 79 80
M  V30 60 1 80 81
M  V30 61 1 82 83
M  V30 62 1 83 84
M  V30 63 1 85 86
M  V30 64 1 86 87
M  V30 65 1 88 89
M  V30 66 1 89 90
M  V30 67 1 91 92
M  V30 68 1 92 93
M  V30 69 1 94 95
M  V30 70 1 95 96
M  V30 71 1 97 98
M  V30 72 1 98 99
M  V30 73 1 2 58
M  V30 74 1 3 46
M  V30 75 1 4 94
M  V30 76 1 5 76
M  V30 77 1 7 55
M  V30 78 1 8 52
M  V30 79 1 9 96
M  V30 80 1 10 82
M  V30 81 1 12 73
M  V30 82 1 13 54
M  V30 83 1 14 97
M  V30 84 1 15 57
M  V30 85 1 17 67
M  V30 86 1 18 70
M  V30 87 1 19 79
M  V30 88 1 20 60
M  V30 89 1 22 61
M  V30 90 1 23 85
M  V30 91 1 24 75
M  V30 92 1 25 91
M  V30 93 1 27 81
M  V30 94 1 28 69
M  V30 95 1 29 99
M  V30 96 1 30 84
M  V30 97 1 32 64
M  V30 98 1 33 49
M  V30 99 1 34 88
M  V30 100 1 35 48
M  V30 101 1 37 51
M  V30 102 1 38 93
M  V30 103 1 39 78
M  V30 104 1 40 63
M  V30 105 1 42 72
M  V30 106 1 43 90
M  V30 107 1 44 66
M  V30 108 1 45 87
M  V30 END BOND
M  V30 END CTAB
M  END

$$$$
