
     RDKit          3D

  0  0  0  0  0  0  0  0  0  0999 V3000
M  V30 BEGIN CTAB
M  V30 COUNTS 99 108 0 0 0
M  V30 BEGIN ATOM
M  V30 1 Pd 2.0743 -6.1229 -2.6111 0
M  V30 2 Pb 1.5515 -6.9532 -2.4117 0
M  V30 3 Pb 2.8455 -6.5734 -2.1635 0
M  V30 4 Pb 2.5859 -5.2652 -2.6966 0
M  V30 5 Pb 1.2844 -5.7235 -3.0748 0
M  V30 6 Pd 0.7624 4.9356 -3.8446 0
M  V30 7 Pb 1.4455 4.3065 -3.4614 0
M  V30 8 Pb 1.1848 5.6571 -3.2891 0
M  V30 9 Pb 0.3715 4.2094 -4.4067 0
M  V30 10 Pb 0.0904 5.5400 -4.2895 0
M  V30 11 Pd -1.0970 0.2313 3.0167 0
M  V30 12 Pb -1.8041 -0.3747 2.6527 0
M  V30 13 Pb -1.1580 -0.2255 3.9062 0
M  V30 14 Pb -0.3942 0.8844 3.3028 0
M  V30 15 Pb -1.0622 0.7249 2.1526 0
M  V30 16 Pd -4.1169 7.0392 -3.0198 0
M  V30 17 Pb -4.3270 7.1268 -2.0392 0
M  V30 18 Pb -4.3737 6.0707 -2.9824 0
M  V30 19 Pb -3.9297 8.0197 -3.0462 0
M  V30 20 Pb -3.6623 6.9403 -3.9029 0
M  V30 21 Pd -0.4924 7.4268 0.5354 0
M  V30 22 Pb -1.4838 7.4135 0.7206 0
M  V30 23 Pb -0.5189 6.4368 0.4039 0
M  V30 24 Pb 0.4248 7.4457 0.1463 0
M  V30 25 Pb -0.5042 8.4255 0.5456 0
M  V30 26 Pd 2.2744 -9.9980 3.1856 0
M  V30 27 Pb 1.5197 -9.8198 3.8206 0
M  V30 28 Pb 3.0196 -9.9679 2.5240 0
M  V30 29 Pb 2.8876 -9.6611 3.8926 0
M  V30 30 Pb 1.6614 -10.1794 2.4169 0
M  V30 31 Pd -3.6914 -0.8796 -3.5654 0
M  V30 32 Pb -3.9847 -1.2876 -2.7027 0
M  V30 33 Pb -3.2159 -1.7213 -3.8163 0
M  V30 34 Pb -3.2794 -0.4189 -4.3454 0
M  V30 35 Pb -4.1548 -0.0249 -3.3267 0
M  V30 36 Pd 1.2441 -3.8506 6.1721 0
M  V30 37 Pb 0.4649 -3.2227 6.1714 0
M  V30 38 Pb 0.6670 -4.6547 6.3330 0
M  V30 39 Pb 2.0203 -4.4745 6.2155 0
M  V30 40 Pb 1.8433 -3.1151 5.8640 0
M  V30 41 Pd 2.9034 0.9912 0.2856 0
M  V30 42 Pb 2.5674 1.6766 0.9343 0
M  V30 43 Pb 3.2189 0.2599 -0.3257 0
M  V30 44 Pb 2.8716 1.5883 -0.5242 0
M  V30 45 Pb 3.0485 0.4418 1.1090 0
M  V30 46 Ag -4.6294 5.3660 -2.9134 0
M  V30 47 Fe -4.5081 2.9964 -3.0594 0
M  V30 48 Ag -4.5004 0.6213 -3.1618 0
M  V30 49 Ag 3.3547 -6.9924 -1.8084 0
M  V30 50 Fe 3.6306 -8.4444 0.0472 0
M  V30 51 Ag 3.5132 -9.8029 1.9883 0
M  V30 52 Ag 2.2982 -2.6105 5.5512 0
M  V30 53 Fe 2.7286 -1.2394 3.6606 0
M  V30 54 Ag 3.1892 0.1361 1.7805 0
M  V30 55 Ag 1.0147 -9.5432 4.3059 0
M  V30 56 Fe 0.5087 -7.5069 5.4280 0
M  V30 57 Ag 0.3228 -5.3243 6.3573 0
M  V30 58 Ag -1.0053 1.1670 1.5544 0
M  V30 59 Fe -0.7868 3.4256 0.8622 0
M  V30 60 Ag -0.5667 5.7060 0.2456 0
M  V30 61 Ag 0.6799 -5.4614 -3.4316 0
M  V30 62 Fe -1.0767 -3.8884 -3.7058 0
M  V30 63 Ag -2.8497 -2.3415 -4.0206 0
M  V30 64 Ag 3.2791 -9.2702 4.3897 0
M  V30 65 Fe 3.1104 -7.1550 5.4406 0
M  V30 66 Ag 2.5482 -5.0011 6.2489 0
M  V30 67 Ag -2.3284 -0.7905 2.3149 0
M  V30 68 Fe -3.3252 -1.2723 0.2152 0
M  V30 69 Ag -4.1112 -1.5373 -2.0087 0
M  V30 70 Ag 0.0453 3.6889 -4.8338 0
M  V30 71 Fe -1.4135 1.8246 -4.9655 0
M  V30 72 Ag -2.8957 -0.0216 -4.8454 0
M  V30 73 Ag 2.9600 -4.6122 -2.7020 0
M  V30 74 Fe 3.2131 -2.4395 -1.7668 0
M  V30 75 Ag 3.4413 -0.2733 -0.8103 0
M  V30 76 Ag 1.2026 -7.5687 -2.1590 0
M  V30 77 Fe 1.1002 -9.0044 -0.2685 0
M  V30 78 Ag 1.2745 -10.2042 1.7747 0
M  V30 79 Ag -3.7244 8.7256 -2.9314 0
M  V30 80 Fe -2.1992 9.5983 -1.3649 0
M  V30 81 Ag -0.6571 9.1231 0.3468 0
M  V30 82 Ba -0.4229 5.9068 -4.7098 0
M  V30 83 Ga -1.8147 6.4032 -4.6052 0
M  V30 84 Ba -3.2039 6.9057 -4.4952 0
M  V30 85 Ba -1.2604 -0.5649 4.5692 0
M  V30 86 Ga -0.6574 -1.6564 5.3601 0
M  V30 87 Ba -0.1055 -2.7357 6.2034 0
M  V30 88 Ba 0.1158 1.4327 3.3777 0
M  V30 89 Ga 1.2348 1.8085 2.4844 0
M  V30 90 Ba 2.3244 2.0825 1.5205 0
M  V30 91 Ba 1.5627 6.1395 -2.8493 0
M  V30 92 Ga 1.3363 6.8093 -1.5528 0
M  V30 93 Ba 1.0537 7.4589 -0.2572 0
M  V30 94 Ba -4.3775 7.1906 -1.2853 0
M  V30 95 Ga -3.3320 7.2978 -0.2309 0
M  V30 96 Ba -2.2414 7.4018 0.7771 0
M  V30 97 Ba 2.0054 3.8615 -3.2223 0
M  V30 98 Ga 2.3883 2.9302 -2.1356 0
M  V30 99 Ba 2.9742 1.9774 -1.1648 0
M  V30 END ATOM
M  V30 BEGIN BOND
M  V30 1 1 1 2
M  V30 2 1 1 3
M  V30 3 1 1 4
M  V30 4 1 1 5
M  V30 5 1 6 7
M  V30 6 1 6 8
M  V30 7 1 6 9
M  V30 8 1 6 10
M  V30 9 1 11 12
M  V30 10 1 11 13
M  V30 11 1 11 14
M  V30 12 1 11 15
M  V30 13 1 16 17
M  V30 14 1 16 18
M  V30 15 1 16 19
M  V30 16 1 16 20
M  V30 17 1 21 22
M  V30 18 1 21 23
M  V30 19 1 21 24
M  V30 20 1 21 25
M  V30 21 1 26 27
M  V30 22 1 26 28
M  V30 23 1 26 29
M  V30 24 1 26 30
M  V30 25 1 31 32
M  V30 26 1 31 33
M  V30 27 1 31 34
M  V30 28 1 31 35
M  V30 29 1 36 37
M  V30 30 1 36 38
M  V30 31 1 36 39
M  V30 32 1 36 40
M  V30 33 1 41 42
M  V30 34 1 41 43
M  V30 35 1 41 44
M  V30 36 1 41 45
M  V30 37 1 46 47
M  V30 38 1 47 48
M  V30 39 1 49 50
M  V30 40 1 50 51
M  V30 41 1 52 53
M  V30 42 1 53 54
M  V30 43 1 55 56
M  V30 44 1 56 57
M  V30 45 1 58 59
M  V30 46 1 59 60
M  V30 47 1 61 62
M  V30 48 1 62 63
M  V30 49 1 64 65
M  V30 50 1 65 66
M  V30 51 1 67 68
M  V30 52 1 68 69
M  V30 53 1 70 71
M  V30 54 1 71 72
M  V30 55 1 73 74
M  V30 56 1 74 75
M  V30 57 1 76 77
M  V30 58 1 77 78
M  V30 59 1 79 80
M  V30 60 1 80 81
M  V30 61 1 82 83
M  V30 62 1 83 84
M  V30 63 1 85 86
M  V30 64 1 86 87
M  V30 65 1 88 89
M  V30 66 1 89 90
M  V30 67 1 91 92
M  V30 68 1 92 93
M  V30 69 1 94 95
M  V30 70 1 95 96
M  V30 71 1 97 98
M  V30 72 1 98 99
M  V30 73 1 2 76
M  V30 74 1 3 49
M  V30 75 1 4 73
M  V30 76 1 5 61
M  V30 77 1 7 97
M  V30 78 1 8 91
M  V30 79 1 9 70
M  V30 80 1 10 82
M  V30 81 1 12 67
M  V30 82 1 13 85
M  V30 83 1 14 88
M  V30 84 1 15 58
M  V30 85 1 17 94
M  V30 86 1 18 46
M  V30 87 1 19 79
M  V30 88 1 20 84
M  V30 89 1 22 96
M  V30 90 1 23 60
M  V30 91 1 24 93
M  V30 92 1 25 81
M  V30 93 1 27 55
M  V30 94 1 28 51
M  V30 95 1 29 64
M  V30 96 1 30 78
M  V30 97 1 32 69
M  V30 98 1 33 63
M  V30 99 1 34 72
M  V30 100 1 35 48
M  V30 101 1 37 87
M  V30 102 1 38 57
M  V30 103 1 39 66
M  V30 104 1 40 52
M  V30 105 1 42 90
M  V30 106 1 43 75
M  V30 107 1 44 99
M  V30 108 1 45 54
M  V30 END BOND
M  V30 END CTAB
M  END

$$$$
