
     RDKit          3D

  0  0  0  0  0  0  0  0  0  0999 V3000
M  V30 BEGIN CTAB
M  V30 COUNTS 99 108 0 0 0
M  V30 BEGIN ATOM
M  V30 1 Pd -5.6788 3.1648 -3.0704 0
M  V30 2 Pb -6.1062 2.5253 -2.4323 0
M  V30 3 Pb -6.3595 2.9964 -3.7852 0
M  V30 4 Pb -5.1995 3.7295 -3.7403 0
M  V30 5 Pb -4.9166 3.2411 -2.4286 0
M  V30 6 Pd -3.9259 0.9280 -9.1601 0
M  V30 7 Pb -4.1408 -0.0439 -9.2273 0
M  V30 8 Pb -3.7103 1.8725 -8.9231 0
M  V30 9 Pb -4.8870 1.1596 -9.0113 0
M  V30 10 Pb -2.9671 0.6620 -9.0667 0
M  V30 11 Pd 2.5678 -3.4458 1.9365 0
M  V30 12 Pb 1.9643 -3.6727 2.7005 0
M  V30 13 Pb 3.1265 -3.1552 1.1588 0
M  V30 14 Pb 3.3469 -3.3262 2.5556 0
M  V30 15 Pb 1.8185 -3.6437 1.3054 0
M  V30 16 Pd 6.6141 0.3935 7.2248 0
M  V30 17 Pb 7.2499 0.8427 6.5950 0
M  V30 18 Pb 5.8332 0.0382 7.7341 0
M  V30 19 Pb 6.4842 1.2836 7.6528 0
M  V30 20 Pb 6.6472 -0.4564 6.7011 0
M  V30 21 Pd -3.0632 -2.6335 0.3783 0
M  V30 22 Pb -2.6578 -1.8300 0.8144 0
M  V30 23 Pb -3.4608 -3.4023 -0.1206 0
M  V30 24 Pb -2.1742 -3.0803 0.2725 0
M  V30 25 Pb -3.9455 -2.1626 0.3854 0
M  V30 26 Pd -1.9075 -3.6355 -4.3536 0
M  V30 27 Pb -2.4576 -3.7994 -5.1720 0
M  V30 28 Pb -1.3917 -3.4298 -3.5188 0
M  V30 29 Pb -1.3296 -3.0581 -4.9336 0
M  V30 30 Pb -2.5279 -4.1834 -3.7921 0
M  V30 31 Pd -0.2123 -0.2080 4.9287 0
M  V30 32 Pb -0.6777 -0.1175 4.0479 0
M  V30 33 Pb -0.1666 0.7939 4.9476 0
M  V30 34 Pb -0.2189 -1.2075 4.8774 0
M  V30 35 Pb 0.2957 -0.2913 5.7872 0
M  V30 36 Pd 1.2958 0.2068 -1.3089 0
M  V30 37 Pb 1.8264 1.0540 -1.2703 0
M  V30 38 Pb 2.1338 -0.3390 -1.3532 0
M  V30 39 Pb 0.4705 0.7642 -1.1921 0
M  V30 40 Pb 0.7816 -0.6538 -1.3128 0
M  V30 41 Pd 4.3494 5.3336 3.3986 0
M  V30 42 Pb 4.5150 5.4598 4.3738 0
M  V30 43 Pb 5.3201 5.1056 3.3159 0
M  V30 44 Pb 3.3658 5.3488 3.5740 0
M  V30 45 Pb 4.1928 5.1331 2.4313 0
M  V30 46 Ag 3.9489 -3.2798 3.0047 0
M  V30 47 Fe 5.2896 -2.1929 4.6380 0
M  V30 48 Ag 6.5978 -1.0690 6.2725 0
M  V30 49 Ag 2.2051 1.6993 -1.2116 0
M  V30 50 Fe 3.1563 3.3475 0.2102 0
M  V30 51 Ag 4.0744 4.9381 1.7167 0
M  V30 52 Ag -2.3010 0.3986 -8.8444 0
M  V30 53 Fe -1.4481 -1.0835 -7.1942 0
M  V30 54 Ag -0.9881 -2.6218 -5.4420 0
M  V30 55 Ag -6.7545 2.8523 -4.4080 0
M  V30 56 Fe -6.3894 2.1159 -6.6375 0
M  V30 57 Ag -5.5536 1.3535 -8.7271 0
M  V30 58 Ag -0.1284 1.5443 4.8918 0
M  V30 59 Fe 1.1744 3.4574 4.3488 0
M  V30 60 Ag 2.6526 5.2276 3.7720 0
M  V30 61 Ag 6.3284 1.9895 7.8331 0
M  V30 62 Fe 5.5081 3.8956 6.6922 0
M  V30 63 Ag 4.6847 5.4437 5.1002 0
M  V30 64 Ag -4.8496 4.0569 -4.3148 0
M  V30 65 Fe -4.1295 3.5343 -6.5127 0
M  V30 66 Ag -3.6150 2.5402 -8.6028 0
M  V30 67 Ag -4.3218 3.2269 -1.9725 0
M  V30 68 Fe -2.2131 2.2275 -1.5212 0
M  V30 69 Ag -0.1046 1.2322 -1.0603 0
M  V30 70 Ag -4.2347 -0.7806 -9.1418 0
M  V30 71 Fe -3.6398 -2.4663 -7.5818 0
M  V30 72 Ag -2.8518 -3.8318 -5.8084 0
M  V30 73 Ag -6.3336 2.0062 -1.9421 0
M  V30 74 Fe -5.5848 0.0996 -0.7409 0
M  V30 75 Ag -4.5803 -1.7671 0.3292 0
M  V30 76 Ag 7.5951 1.2756 6.0867 0
M  V30 77 Fe 7.0351 3.0689 4.6305 0
M  V30 78 Ag 6.0060 4.8054 3.3753 0
M  V30 79 Ag 5.1680 -0.1630 8.0108 0
M  V30 80 Fe 2.8971 -0.3238 7.3367 0
M  V30 81 Ag 0.7150 -0.3905 6.4024 0
M  V30 82 Ba -3.7138 -3.9650 -0.5451 0
M  V30 83 Ga -3.3905 -4.3100 -1.9414 0
M  V30 84 Ba -2.9936 -4.5585 -3.3392 0
M  V30 85 Ba 1.4710 -3.8042 3.2497 0
M  V30 86 Ga 0.6352 -2.9031 4.0662 0
M  V30 87 Ba -0.1774 -1.9569 4.8548 0
M  V30 88 Ba -1.0680 -3.3107 -2.8498 0
M  V30 89 Ga -0.3051 -2.2781 -2.1171 0
M  V30 90 Ba 0.4578 -1.3320 -1.2755 0
M  V30 91 Ba -2.3917 -1.1850 1.0896 0
M  V30 92 Ga -1.6889 -0.6484 2.2704 0
M  V30 93 Ba -0.9949 0.0268 3.3834 0
M  V30 94 Ba 1.2887 -3.8473 0.8163 0
M  V30 95 Ga -0.1340 -3.5954 0.5185 0
M  V30 96 Ba -1.5409 -3.4456 0.1016 0
M  V30 97 Ba 3.5013 -2.9002 0.5603 0
M  V30 98 Ga 3.1660 -1.8432 -0.4146 0
M  V30 99 Ba 2.7477 -0.7716 -1.3401 0
M  V30 END ATOM
M  V30 BEGIN BOND
M  V30 1 1 1 2
M  V30 2 1 1 3
M  V30 3 1 1 4
M  V30 4 1 1 5
M  V30 5 1 6 7
M  V30 6 1 6 8
M  V30 7 1 6 9
M  V30 8 1 6 10
M  V30 9 1 11 12
M  V30 10 1 11 13
M  V30 11 1 11 14
M  V30 12 1 11 15
M  V30 13 1 16 17
M  V30 14 1 16 18
M  V30 15 1 16 19
M  V30 16 1 16 20
M  V30 17 1 21 22
M  V30 18 1 21 23
M  V30 19 1 21 24
M  V30 20 1 21 25
M  V30 21 1 26 27
M  V30 22 1 26 28
M  V30 23 1 26 29
M  V30 24 1 26 30
M  V30 25 1 31 32
M  V30 26 1 31 33
M  V30 27 1 31 34
M  V30 28 1 31 35
M  V30 29 1 36 37
M  V30 30 1 36 38
M  V30 31 1 36 39
M  V30 32 1 36 40
M  V30 33 1 41 42
M  V30 34 1 41 43
M  V30 35 1 41 44
M  V30 36 1 41 45
M  V30 37 1 46 47
M  V30 38 1 47 48
M  V30 39 1 49 50
M  V30 40 1 50 51
M  V30 41 1 52 53
M  V30 42 1 53 54
M  V30 43 1 55 56
M  V30 44 1 56 57
M  V30 45 1 58 59
M  V30 46 1 59 60
M  V30 47 1 61 62
M  V30 48 1 62 63
M  V30 49 1 64 65
M  V30 50 1 65 66
M  V30 51 1 67 68
M  V30 52 1 68 69
M  V30 53 1 70 71
M  V30 54 1 71 72
M  V30 55 1 73 74
M  V30 56 1 74 75
M  V30 57 1 76 77
M  V30 58 1 77 78
M  V30 59 1 79 80
M  V30 60 1 80 81
M  V30 61 1 82 83
M  V30 62 1 83 84
M  V30 63 1 85 86
M  V30 64 1 86 87
M  V30 65 1 88 89
M  V30 66 1 89 90
M  V30 67 1 91 92
M  V30 68 1 92 93
M  V30 69 1 94 95
M  V30 70 1 95 96
M  V30 71 1 97 98
M  V30 72 1 98 99
M  V30 73 1 2 73
M  V30 74 1 3 55
M  V30 75 1 4 64
M  V30 76 1 5 67
M  V30 77 1 7 70
M  V30 78 1 8 66
M  V30 79 1 9 57
M  V30 80 1 10 52
M  V30 81 1 12 85
M  V30 82 1 13 97
M  V30 83 1 14 46
M  V30 84 1 15 94
M  V30 85 1 17 76
M  V30 86 1 18 79
M  V30 87 1 19 61
M  V30 88 1 20 48
M  V30 89 1 22 91
M  V30 90 1 23 82
M  V30 91 1 24 96
M  V30 92 1 25 75
M  V30 93 1 27 72
M  V30 94 1 28 88
M  V30 95 1 29 54
M  V30 96 1 30 84
M  V30 97 1 32 93
M  V30 98 1 33 58
M  V30 99 1 34 87
M  V30 100 1 35 81
M  V30 101 1 37 49
M  V30 102 1 38 99
M  V30 103 1 39 69
M  V30 104 1 40 90
M  V30 105 1 42 63
M  V30 106 1 43 78
M  V30 107 1 44 60
M  V30 108 1 45 51
M  V30 END BOND
M  V30 END CTAB
M  END

$$$$
