
     RDKit          3D

  0  0  0  0  0  0  0  0  0  0999 V3000
M  V30 BEGIN CTAB
M  V30 COUNTS 99 108 0 0 0
M  V30 BEGIN ATOM
M  V30 1 Pd 3.9896 -4.0825 4.8216 0
M  V30 2 Pb 4.4340 -3.8850 3.9476 0
M  V30 3 Pb 3.5556 -4.2303 5.7113 0
M  V30 4 Pb 4.8709 -4.0262 5.2905 0
M  V30 5 Pb 3.1007 -4.1376 4.3665 0
M  V30 6 Pd 4.8373 -1.2154 8.6998 0
M  V30 7 Pb 5.4247 -0.4291 8.5189 0
M  V30 8 Pb 5.5472 -1.8324 8.3667 0
M  V30 9 Pb 4.2222 -1.9992 8.7774 0
M  V30 10 Pb 4.1011 -0.5833 8.9387 0
M  V30 11 Pd -0.7251 -2.2370 -3.3937 0
M  V30 12 Pb -0.0185 -1.7170 -3.8779 0
M  V30 13 Pb -1.4585 -2.6932 -2.8927 0
M  V30 14 Pb -1.3103 -2.2405 -4.2069 0
M  V30 15 Pb -0.1420 -2.3571 -2.5847 0
M  V30 16 Pd -5.9502 0.5615 -8.3459 0
M  V30 17 Pb -6.6687 0.3704 -7.6777 0
M  V30 18 Pb -5.1513 0.8437 -8.8678 0
M  V30 19 Pb -6.3375 1.4698 -8.4723 0
M  V30 20 Pb -5.4747 -0.2858 -8.1172 0
M  V30 21 Pd 3.1320 -0.4926 0.8058 0
M  V30 22 Pb 2.4546 0.1981 0.5676 0
M  V30 23 Pb 3.7033 0.2359 1.1871 0
M  V30 24 Pb 2.5544 -1.2141 0.4193 0
M  V30 25 Pb 3.8200 -1.1854 1.0273 0
M  V30 26 Pd 3.4075 2.2369 5.5359 0
M  V30 27 Pb 4.3015 2.2279 5.9843 0
M  V30 28 Pb 2.5027 2.2404 5.1092 0
M  V30 29 Pb 2.9849 2.1172 6.4350 0
M  V30 30 Pb 3.8525 2.3063 4.6420 0
M  V30 31 Pd -0.4902 2.9049 -4.9459 0
M  V30 32 Pb -0.3469 2.9147 -3.9600 0
M  V30 33 Pb -1.1391 3.6638 -4.8481 0
M  V30 34 Pb 0.1358 2.1248 -5.0254 0
M  V30 35 Pb -0.6600 2.8608 -5.9284 0
M  V30 36 Pd -2.3625 -0.9874 1.2537 0
M  V30 37 Pb -2.9718 -0.2913 0.8699 0
M  V30 38 Pb -2.7450 -1.6806 0.6439 0
M  V30 39 Pb -1.7721 -1.6962 1.6421 0
M  V30 40 Pb -1.9630 -0.2874 1.8468 0
M  V30 41 Pd -5.8665 3.2949 -4.4654 0
M  V30 42 Pb -6.1309 3.6270 -5.3713 0
M  V30 43 Pb -6.5593 2.5762 -4.5630 0
M  V30 44 Pb -5.1279 3.9709 -4.4243 0
M  V30 45 Pb -5.6469 2.9868 -3.5377 0
M  V30 46 Ag -1.7652 -2.3265 -4.7998 0
M  V30 47 Fe -3.4099 -1.6066 -6.3558 0
M  V30 48 Ag -5.0516 -0.8659 -7.9052 0
M  V30 49 Ag -3.4355 0.2388 0.6077 0
M  V30 50 Fe -4.4417 1.4797 -1.1523 0
M  V30 51 Ag -5.5116 2.7843 -2.8264 0
M  V30 52 Ag 2.4307 -4.1865 4.0328 0
M  V30 53 Fe 0.5547 -3.1809 2.9778 0
M  V30 54 Ag -1.3600 -2.2625 1.9129 0
M  V30 55 Ag 1.8125 2.2445 4.8145 0
M  V30 56 Fe 0.0875 1.2276 3.5362 0
M  V30 57 Ag -1.6754 0.2620 2.2698 0
M  V30 58 Ag 1.9684 0.7283 0.3691 0
M  V30 59 Fe 0.8350 1.8434 -1.3891 0
M  V30 60 Ag -0.2459 2.8896 -3.2211 0
M  V30 61 Ag -4.4986 1.1110 -9.1062 0
M  V30 62 Fe -2.5495 1.9883 -8.0846 0
M  V30 63 Ag -0.8360 2.7762 -6.6500 0
M  V30 64 Ba 3.5578 -0.0780 9.0428 0
M  V30 65 Ga 3.0846 0.9762 8.1262 0
M  V30 66 Ba 2.7067 1.9859 7.1197 0
M  V30 67 Ba 3.2639 -4.2988 6.3999 0
M  V30 68 Ga 3.4755 -3.4873 7.6136 0
M  V30 69 Ba 3.7724 -2.5982 8.7528 0
M  V30 70 Ba -1.6271 4.2292 -4.7488 0
M  V30 71 Ga -3.0924 4.3452 -4.5856 0
M  V30 72 Ba -4.5577 4.4616 -4.4227 0
M  V30 73 Ba -6.5644 2.1796 -8.4649 0
M  V30 74 Ga -6.4995 3.0812 -7.3043 0
M  V30 75 Ba -6.3647 3.8409 -6.0514 0
M  V30 76 Ba 5.5082 -3.9702 5.6815 0
M  V30 77 Ga 5.8373 -3.1624 6.8684 0
M  V30 78 Ba 6.0333 -2.3033 8.0486 0
M  V30 79 Ba 4.1112 0.8058 1.4578 0
M  V30 80 Ga 4.1553 1.5666 2.7225 0
M  V30 81 Ba 4.2096 2.3353 3.9820 0
M  V30 82 Ba 5.8158 0.1747 8.3144 0
M  V30 83 Ga 5.4445 1.2205 7.3456 0
M  V30 84 Ba 4.9509 2.1964 6.3582 0
M  V30 85 Ba 0.4930 -1.3000 -4.2389 0
M  V30 86 Ga 0.5503 0.1161 -4.6619 0
M  V30 87 Ba 0.5994 1.5335 -5.0813 0
M  V30 88 Ba 0.2474 -2.5603 -1.9712 0
M  V30 89 Ga 1.1988 -2.0889 -0.9423 0
M  V30 90 Ba 2.1410 -1.7838 0.1560 0
M  V30 91 Ba 4.7761 -3.7128 3.3025 0
M  V30 92 Ga 4.5478 -2.7152 2.2388 0
M  V30 93 Ba 4.3273 -1.7206 1.1707 0
M  V30 94 Ba -7.1527 0.3153 -7.1072 0
M  V30 95 Ga -7.1686 1.1305 -5.8748 0
M  V30 96 Ba -7.0528 2.0249 -4.7038 0
M  V30 97 Ba -2.0164 -2.9888 -2.4908 0
M  V30 98 Ga -2.5389 -2.6330 -1.1601 0
M  V30 99 Ba -2.9946 -2.2093 0.1752 0
M  V30 END ATOM
M  V30 BEGIN BOND
M  V30 1 1 1 2
M  V30 2 1 1 3
M  V30 3 1 1 4
M  V30 4 1 1 5
M  V30 5 1 6 7
M  V30 6 1 6 8
M  V30 7 1 6 9
M  V30 8 1 6 10
M  V30 9 1 11 12
M  V30 10 1 11 13
M  V30 11 1 11 14
M  V30 12 1 11 15
M  V30 13 1 16 17
M  V30 14 1 16 18
M  V30 15 1 16 19
M  V30 16 1 16 20
M  V30 17 1 21 22
M  V30 18 1 21 23
M  V30 19 1 21 24
M  V30 20 1 21 25
M  V30 21 1 26 27
M  V30 22 1 26 28
M  V30 23 1 26 29
M  V30 24 1 26 30
M  V30 25 1 31 32
M  V30 26 1 31 33
M  V30 27 1 31 34
M  V30 28 1 31 35
M  V30 29 1 36 37
M  V30 30 1 36 38
M  V30 31 1 36 39
M  V30 32 1 36 40
M  V30 33 1 41 42
M  V30 34 1 41 43
M  V30 35 1 41 44
M  V30 36 1 41 45
M  V30 37 1 46 47
M  V30 38 1 47 48
M  V30 39 1 49 50
M  V30 40 1 50 51
M  V30 41 1 52 53
M  V30 42 1 53 54
M  V30 43 1 55 56
M  V30 44 1 56 57
M  V30 45 1 58 59
M  V30 46 1 59 60
M  V30 47 1 61 62
M  V30 48 1 62 63
M  V30 49 1 64 65
M  V30 50 1 65 66
M  V30 51 1 67 68
M  V30 52 1 68 69
M  V30 53 1 70 71
M  V30 54 1 71 72
M  V30 55 1 73 74
M  V30 56 1 74 75
M  V30 57 1 76 77
M  V30 58 1 77 78
M  V30 59 1 79 80
M  V30 60 1 80 81
M  V30 61 1 82 83
M  V30 62 1 83 84
M  V30 63 1 85 86
M  V30 64 1 86 87
M  V30 65 1 88 89
M  V30 66 1 89 90
M  V30 67 1 91 92
M  V30 68 1 92 93
M  V30 69 1 94 95
M  V30 70 1 95 96
M  V30 71 1 97 98
M  V30 72 1 98 99
M  V30 73 1 2 91
M  V30 74 1 3 67
M  V30 75 1 4 76
M  V30 76 1 5 52
M  V30 77 1 7 82
M  V30 78 1 8 78
M  V30 79 1 9 69
M  V30 80 1 10 64
M  V30 81 1 12 85
M  V30 82 1 13 97
M  V30 83 1 14 46
M  V30 84 1 15 88
M  V30 85 1 17 94
M  V30 86 1 18 61
M  V30 87 1 19 73
M  V30 88 1 20 48
M  V30 89 1 22 58
M  V30 90 1 23 79
M  V30 91 1 24 90
M  V30 92 1 25 93
M  V30 93 1 27 84
M  V30 94 1 28 55
M  V30 95 1 29 66
M  V30 96 1 30 81
M  V30 97 1 32 60
M  V30 98 1 33 70
M  V30 99 1 34 87
M  V30 100 1 35 63
M  V30 101 1 37 49
M  V30 102 1 38 99
M  V30 103 1 39 54
M  V30 104 1 40 57
M  V30 105 1 42 75
M  V30 106 1 43 96
M  V30 107 1 44 72
M  V30 108 1 45 51
M  V30 END BOND
M  V30 END CTAB
M  END

$$$$
