
     RDKit          3D

  0  0  0  0  0  0  0  0  0  0999 V3000
M  V30 BEGIN CTAB
M  V30 COUNTS 99 108 0 0 0
M  V30 BEGIN ATOM
M  V30 1 Pd 0.2743 -3.2663 -2.8350 0
M  V30 2 Pb 0.2476 -3.9182 -2.0730 0
M  V30 3 Pb 1.2124 -3.5527 -3.0269 0
M  V30 4 Pb -0.6950 -3.0428 -2.7002 0
M  V30 5 Pb 0.3521 -2.6017 -3.5789 0
M  V30 6 Pd -3.7956 0.7841 -3.3809 0
M  V30 7 Pb -2.8642 1.0311 -3.1043 0
M  V30 8 Pb -3.9695 1.7516 -3.5143 0
M  V30 9 Pb -3.6442 -0.1839 -3.1671 0
M  V30 10 Pb -4.7892 0.6809 -3.4473 0
M  V30 11 Pd -3.1812 4.6862 1.9300 0
M  V30 12 Pb -2.7291 4.4757 2.7950 0
M  V30 13 Pb -3.5917 4.9607 1.0688 0
M  V30 14 Pb -4.0917 4.6126 2.3303 0
M  V30 15 Pb -2.3410 4.5070 1.4140 0
M  V30 16 Pd -2.0807 -3.4891 1.9336 0
M  V30 17 Pb -2.6856 -3.8112 1.2213 0
M  V30 18 Pb -1.4507 -3.2388 2.6694 0
M  V30 19 Pb -2.7767 -2.8031 2.2457 0
M  V30 20 Pb -1.3996 -4.1124 1.5530 0
M  V30 21 Pd 1.7168 4.0996 2.3554 0
M  V30 22 Pb 2.3129 3.9763 1.5381 0
M  V30 23 Pb 2.4440 3.7754 2.9554 0
M  V30 24 Pb 1.0948 4.1444 3.1354 0
M  V30 25 Pb 0.9708 4.3824 1.7646 0
M  V30 26 Pd -6.2802 0.6649 0.6211 0
M  V30 27 Pb -5.7484 0.1756 1.3465 0
M  V30 28 Pb -6.3307 -0.1652 0.0880 0
M  V30 29 Pb -6.3211 1.5090 1.1752 0
M  V30 30 Pb -6.7340 1.0534 -0.1812 0
M  V30 31 Pd 5.7259 -2.7287 -1.2297 0
M  V30 32 Pb 6.3645 -2.3050 -0.5875 0
M  V30 33 Pb 5.8215 -1.9593 -1.8620 0
M  V30 34 Pb 5.5973 -3.4741 -0.5738 0
M  V30 35 Pb 5.1290 -3.1868 -1.8864 0
M  V30 36 Pd 2.5540 1.5355 -3.0155 0
M  V30 37 Pb 3.4598 1.1172 -3.1223 0
M  V30 38 Pb 1.6749 1.9932 -2.9590 0
M  V30 39 Pb 2.1702 0.9415 -3.7245 0
M  V30 40 Pb 2.9030 2.1345 -2.2677 0
M  V30 41 Pd 5.1976 -2.2090 3.7483 0
M  V30 42 Pb 4.2966 -2.3698 4.1507 0
M  V30 43 Pb 5.1744 -3.0913 3.2784 0
M  V30 44 Pb 6.0440 -1.9946 3.2664 0
M  V30 45 Pb 5.2039 -1.2956 4.1462 0
M  V30 46 Ag -3.1781 -3.9652 0.6980 0
M  V30 47 Fe -4.9632 -2.7144 -0.1672 0
M  V30 48 Ag -6.3212 -0.8050 -0.2745 0
M  V30 49 Ag -0.9550 -3.1080 3.2176 0
M  V30 50 Fe 1.3068 -2.7712 3.8605 0
M  V30 51 Ag 3.5950 -2.4405 4.4059 0
M  V30 52 Ag -4.1198 2.4743 -3.4635 0
M  V30 53 Fe -4.0848 4.0509 -1.7074 0
M  V30 54 Ag -3.8336 5.1153 0.3849 0
M  V30 55 Ag 2.9646 3.4829 3.4038 0
M  V30 56 Fe 4.1376 1.5063 3.9834 0
M  V30 57 Ag 5.1778 -0.5868 4.3779 0
M  V30 58 Ag -2.2569 1.3409 -2.7831 0
M  V30 59 Fe -1.7925 2.7973 -0.9585 0
M  V30 60 Ag -1.8244 4.2372 0.9366 0
M  V30 61 Ag 0.4649 4.4821 1.2354 0
M  V30 62 Fe 0.3396 3.6238 -0.9528 0
M  V30 63 Ag 1.0666 2.3911 -2.8219 0
M  V30 64 Ba 6.8491 -2.0298 -0.0857 0
M  V30 65 Ga 6.7910 -1.9013 1.3804 0
M  V30 66 Ba 6.6320 -1.8142 2.8420 0
M  V30 67 Ba 1.8943 -3.8024 -3.2122 0
M  V30 68 Ga 3.2922 -3.6458 -2.7722 0
M  V30 69 Ba 4.7136 -3.5448 -2.3961 0
M  V30 70 Ba -2.3370 4.3616 3.4222 0
M  V30 71 Ga -0.8822 4.2440 3.6176 0
M  V30 72 Ba 0.5852 4.1397 3.6838 0
M  V30 73 Ba 0.4651 -2.1058 -4.1312 0
M  V30 74 Ga 1.1482 -0.7983 -4.1989 0
M  V30 75 Ba 1.8372 0.5072 -4.2395 0
M  V30 76 Ba -3.2848 -2.2836 2.5154 0
M  V30 77 Ga -4.3091 -1.2568 2.1170 0
M  V30 78 Ba -5.3575 -0.2004 1.8985 0
M  V30 79 Ba -5.5357 0.7665 -3.3929 0
M  V30 80 Ga -6.3497 0.9841 -2.1743 0
M  V30 81 Ba -7.0206 1.1725 -0.8670 0
M  V30 82 Ba 5.8808 -1.3795 -2.3350 0
M  V30 83 Ga 4.9956 -0.2783 -2.7681 0
M  V30 84 Ba 4.1519 0.8414 -3.2349 0
M  V30 85 Ba 0.2732 -4.4038 -1.4976 0
M  V30 86 Ga -0.3143 -4.4938 -0.1456 0
M  V30 87 Ba -0.9154 -4.5630 1.2015 0
M  V30 88 Ba 5.4948 -4.0022 -0.0495 0
M  V30 89 Ga 5.3282 -3.9119 1.4141 0
M  V30 90 Ba 5.1709 -3.7195 2.8688 0
M  V30 91 Ba -1.4369 -2.9374 -2.6186 0
M  V30 92 Ga -2.4589 -1.8848 -2.8083 0
M  V30 93 Ba -3.5546 -0.9034 -2.9649 0
M  V30 94 Ba 2.7835 3.8924 0.9362 0
M  V30 95 Ga 2.9100 3.2063 -0.3890 0
M  V30 96 Ba 3.1941 2.5984 -1.7278 0
M  V30 97 Ba -4.7928 4.4405 2.5316 0
M  V30 98 Ga -5.6083 3.2841 2.0880 0
M  V30 99 Ba -6.3988 2.1181 1.6239 0
M  V30 END ATOM
M  V30 BEGIN BOND
M  V30 1 1 1 2
M  V30 2 1 1 3
M  V30 3 1 1 4
M  V30 4 1 1 5
M  V30 5 1 6 7
M  V30 6 1 6 8
M  V30 7 1 6 9
M  V30 8 1 6 10
M  V30 9 1 11 12
M  V30 10 1 11 13
M  V30 11 1 11 14
M  V30 12 1 11 15
M  V30 13 1 16 17
M  V30 14 1 16 18
M  V30 15 1 16 19
M  V30 16 1 16 20
M  V30 17 1 21 22
M  V30 18 1 21 23
M  V30 19 1 21 24
M  V30 20 1 21 25
M  V30 21 1 26 27
M  V30 22 1 26 28
M  V30 23 1 26 29
M  V30 24 1 26 30
M  V30 25 1 31 32
M  V30 26 1 31 33
M  V30 27 1 31 34
M  V30 28 1 31 35
M  V30 29 1 36 37
M  V30 30 1 36 38
M  V30 31 1 36 39
M  V30 32 1 36 40
M  V30 33 1 41 42
M  V30 34 1 41 43
M  V30 35 1 41 44
M  V30 36 1 41 45
M  V30 37 1 46 47
M  V30 38 1 47 48
M  V30 39 1 49 50
M  V30 40 1 50 51
M  V30 41 1 52 53
M  V30 42 1 53 54
M  V30 43 1 55 56
M  V30 44 1 56 57
M  V30 45 1 58 59
M  V30 46 1 59 60
M  V30 47 1 61 62
M  V30 48 1 62 63
M  V30 49 1 64 65
M  V30 50 1 65 66
M  V30 51 1 67 68
M  V30 52 1 68 69
M  V30 53 1 70 71
M  V30 54 1 71 72
M  V30 55 1 73 74
M  V30 56 1 74 75
M  V30 57 1 76 77
M  V30 58 1 77 78
M  V30 59 1 79 80
M  V30 60 1 80 81
M  V30 61 1 82 83
M  V30 62 1 83 84
M  V30 63 1 85 86
M  V30 64 1 86 87
M  V30 65 1 88 89
M  V30 66 1 89 90
M  V30 67 1 91 92
M  V30 68 1 92 93
M  V30 69 1 94 95
M  V30 70 1 95 96
M  V30 71 1 97 98
M  V30 72 1 98 99
M  V30 73 1 2 85
M  V30 74 1 3 67
M  V30 75 1 4 91
M  V30 76 1 5 73
M  V30 77 1 7 58
M  V30 78 1 8 52
M  V30 79 1 9 93
M  V30 80 1 10 79
M  V30 81 1 12 70
M  V30 82 1 13 54
M  V30 83 1 14 97
M  V30 84 1 15 60
M  V30 85 1 17 46
M  V30 86 1 18 49
M  V30 87 1 19 76
M  V30 88 1 20 87
M  V30 89 1 22 94
M  V30 90 1 23 55
M  V30 91 1 24 72
M  V30 92 1 25 61
M  V30 93 1 27 78
M  V30 94 1 28 48
M  V30 95 1 29 99
M  V30 96 1 30 81
M  V30 97 1 32 64
M  V30 98 1 33 82
M  V30 99 1 34 88
M  V30 100 1 35 69
M  V30 101 1 37 84
M  V30 102 1 38 63
M  V30 103 1 39 75
M  V30 104 1 40 96
M  V30 105 1 42 51
M  V30 106 1 43 90
M  V30 107 1 44 66
M  V30 108 1 45 57
M  V30 END BOND
M  V30 END CTAB
M  END

$$$$
