
     RDKit          3D

  0  0  0  0  0  0  0  0  0  0999 V3000
M  V30 BEGIN CTAB
M  V30 COUNTS 99 108 0 0 0
M  V30 BEGIN ATOM
M  V30 1 Pd -1.2759 0.6205 -7.5280 0
M  V30 2 Pb -2.0763 1.2190 -7.5563 0
M  V30 3 Pb -1.8391 -0.1870 -7.3517 0
M  V30 4 Pb -0.4356 0.1373 -7.2794 0
M  V30 5 Pb -0.7107 1.4218 -7.6967 0
M  V30 6 Pd 0.0495 1.4990 8.9207 0
M  V30 7 Pb 0.6168 2.3219 8.9248 0
M  V30 8 Pb -0.3901 0.6095 8.7085 0
M  V30 9 Pb 0.6986 1.0343 9.5137 0
M  V30 10 Pb -0.5389 1.9692 8.2668 0
M  V30 11 Pd 2.3316 3.7373 3.0049 0
M  V30 12 Pb 2.6480 4.1193 3.8746 0
M  V30 13 Pb 1.9645 3.2528 2.2142 0
M  V30 14 Pb 1.4077 3.9669 3.3006 0
M  V30 15 Pb 3.2262 3.3654 2.7638 0
M  V30 16 Pd 2.0273 3.4692 -2.7202 0
M  V30 17 Pb 1.7974 2.9993 -1.8720 0
M  V30 18 Pb 2.4485 2.6390 -3.0889 0
M  V30 19 Pb 2.1716 3.8921 -3.6079 0
M  V30 20 Pb 1.4066 4.2138 -2.4842 0
M  V30 21 Pd -2.9745 2.7866 -3.2830 0
M  V30 22 Pb -3.5518 1.9839 -3.4114 0
M  V30 23 Pb -2.4218 3.6107 -3.1162 0
M  V30 24 Pb -3.1730 3.0223 -4.2410 0
M  V30 25 Pb -2.7985 2.4984 -2.3371 0
M  V30 26 Pd 3.7923 -2.9289 0.6673 0
M  V30 27 Pb 4.3077 -2.0985 0.8868 0
M  V30 28 Pb 3.2403 -3.7261 0.4462 0
M  V30 29 Pb 3.9286 -3.2954 1.5891 0
M  V30 30 Pb 3.6117 -2.6090 -0.2685 0
M  V30 31 Pd 1.2029 -3.1529 5.7217 0
M  V30 32 Pb 0.4890 -2.7184 6.3055 0
M  V30 33 Pb 1.8295 -3.1058 6.4922 0
M  V30 34 Pb 0.5461 -3.2788 4.9727 0
M  V30 35 Pb 1.9517 -3.5381 5.1769 0
M  V30 36 Pd -1.4661 -4.0132 -4.2094 0
M  V30 37 Pb -1.0215 -4.5381 -3.4897 0
M  V30 38 Pb -1.9249 -3.5088 -4.9439 0
M  V30 39 Pb -0.5951 -3.5299 -4.3235 0
M  V30 40 Pb -2.3348 -4.4233 -3.9415 0
M  V30 41 Pd -3.5994 -1.8475 -0.6127 0
M  V30 42 Pb -3.2583 -0.9503 -0.3219 0
M  V30 43 Pb -3.9328 -2.7266 -0.9575 0
M  V30 44 Pb -4.0393 -1.4172 -1.3979 0
M  V30 45 Pb -3.1525 -2.3061 0.1602 0
M  V30 46 Ag 0.2122 -0.0737 -6.9629 0
M  V30 47 Fe 1.6099 0.7688 -5.2342 0
M  V30 48 Ag 2.6118 2.0148 -3.4749 0
M  V30 49 Ag 1.2137 0.5840 9.7940 0
M  V30 50 Fe 2.0851 -1.3703 8.8135 0
M  V30 51 Ag 2.2119 -2.9995 7.1183 0
M  V30 52 Ag 1.0778 2.8880 8.7529 0
M  V30 53 Fe 2.0510 3.7889 6.7815 0
M  V30 54 Ag 2.7660 4.3392 4.5834 0
M  V30 55 Ag -0.8689 2.3575 7.7210 0
M  V30 56 Fe -0.3046 3.3032 5.6228 0
M  V30 57 Ag 0.7391 4.0333 3.6248 0
M  V30 58 Ag 0.0349 -3.4348 4.4409 0
M  V30 59 Fe -1.3656 -2.9687 2.5751 0
M  V30 60 Ag -2.8312 -2.6932 0.7213 0
M  V30 61 Ag 3.4261 -2.4375 -0.9807 0
M  V30 62 Fe 1.8139 -2.7361 -2.7075 0
M  V30 63 Ag 0.0675 -3.1755 -4.2652 0
M  V30 64 Ag -0.2607 2.0128 -7.7281 0
M  V30 65 Fe 1.0782 3.2800 -6.2496 0
M  V30 66 Ag 2.1704 4.0976 -4.3206 0
M  V30 67 Ag 2.7820 -4.2704 0.2281 0
M  V30 68 Fe 1.0443 -4.7310 -1.3131 0
M  V30 69 Ag -0.6578 -4.9022 -2.9506 0
M  V30 70 Ag 3.8260 2.9656 2.5617 0
M  V30 71 Fe 4.3841 0.7863 1.7999 0
M  V30 72 Ag 4.6539 -1.4528 1.0541 0
M  V30 73 Ba 0.8513 4.7093 -2.3999 0
M  V30 74 Ga -0.5924 4.5045 -2.6511 0
M  V30 75 Ba -2.0190 4.2220 -2.9253 0
M  V30 76 Ba -2.2695 -0.7896 -7.2321 0
M  V30 77 Ga -2.2555 -1.9691 -6.3439 0
M  V30 78 Ba -2.3150 -3.1743 -5.4931 0
M  V30 79 Ba 1.6870 2.8240 1.6683 0
M  V30 80 Ga 1.6573 2.7677 0.1984 0
M  V30 81 Ba 1.5746 2.6274 -1.2640 0
M  V30 82 Ba -2.6079 1.7432 -7.4707 0
M  V30 83 Ga -3.0203 2.4556 -6.2385 0
M  V30 84 Ba -3.3746 3.1228 -4.9636 0
M  V30 85 Ba -2.6711 2.2712 -1.6291 0
M  V30 86 Ga -2.8382 1.0045 -0.8813 0
M  V30 87 Ba -3.0071 -0.2645 -0.1380 0
M  V30 88 Ba -0.6919 -0.0613 8.4954 0
M  V30 89 Ga -0.3236 -1.2181 7.6188 0
M  V30 90 Ba -0.0481 -2.4185 6.7673 0
M  V30 91 Ba -3.9991 1.3917 -3.4970 0
M  V30 92 Ga -4.1871 0.1362 -2.7534 0
M  V30 93 Ba -4.3637 -1.1148 -1.9998 0
M  V30 94 Ba 4.0106 -3.6232 2.2602 0
M  V30 95 Ga 3.2585 -3.6910 3.5309 0
M  V30 96 Ba 2.5624 -3.8094 4.8294 0
M  V30 97 Ba -2.9653 -4.6715 -3.6258 0
M  V30 98 Ga -3.6352 -4.0793 -2.4540 0
M  V30 99 Ba -4.1716 -3.3595 -1.2845 0
M  V30 END ATOM
M  V30 BEGIN BOND
M  V30 1 1 1 2
M  V30 2 1 1 3
M  V30 3 1 1 4
M  V30 4 1 1 5
M  V30 5 1 6 7
M  V30 6 1 6 8
M  V30 7 1 6 9
M  V30 8 1 6 10
M  V30 9 1 11 12
M  V30 10 1 11 13
M  V30 11 1 11 14
M  V30 12 1 11 15
M  V30 13 1 16 17
M  V30 14 1 16 18
M  V30 15 1 16 19
M  V30 16 1 16 20
M  V30 17 1 21 22
M  V30 18 1 21 23
M  V30 19 1 21 24
M  V30 20 1 21 25
M  V30 21 1 26 27
M  V30 22 1 26 28
M  V30 23 1 26 29
M  V30 24 1 26 30
M  V30 25 1 31 32
M  V30 26 1 31 33
M  V30 27 1 31 34
M  V30 28 1 31 35
M  V30 29 1 36 37
M  V30 30 1 36 38
M  V30 31 1 36 39
M  V30 32 1 36 40
M  V30 33 1 41 42
M  V30 34 1 41 43
M  V30 35 1 41 44
M  V30 36 1 41 45
M  V30 37 1 46 47
M  V30 38 1 47 48
M  V30 39 1 49 50
M  V30 40 1 50 51
M  V30 41 1 52 53
M  V30 42 1 53 54
M  V30 43 1 55 56
M  V30 44 1 56 57
M  V30 45 1 58 59
M  V30 46 1 59 60
M  V30 47 1 61 62
M  V30 48 1 62 63
M  V30 49 1 64 65
M  V30 50 1 65 66
M  V30 51 1 67 68
M  V30 52 1 68 69
M  V30 53 1 70 71
M  V30 54 1 71 72
M  V30 55 1 73 74
M  V30 56 1 74 75
M  V30 57 1 76 77
M  V30 58 1 77 78
M  V30 59 1 79 80
M  V30 60 1 80 81
M  V30 61 1 82 83
M  V30 62 1 83 84
M  V30 63 1 85 86
M  V30 64 1 86 87
M  V30 65 1 88 89
M  V30 66 1 89 90
M  V30 67 1 91 92
M  V30 68 1 92 93
M  V30 69 1 94 95
M  V30 70 1 95 96
M  V30 71 1 97 98
M  V30 72 1 98 99
M  V30 73 1 2 82
M  V30 74 1 3 76
M  V30 75 1 4 46
M  V30 76 1 5 64
M  V30 77 1 7 52
M  V30 78 1 8 88
M  V30 79 1 9 49
M  V30 80 1 10 55
M  V30 81 1 12 54
M  V30 82 1 13 79
M  V30 83 1 14 57
M  V30 84 1 15 70
M  V30 85 1 17 81
M  V30 86 1 18 48
M  V30 87 1 19 66
M  V30 88 1 20 73
M  V30 89 1 22 91
M  V30 90 1 23 75
M  V30 91 1 24 84
M  V30 92 1 25 85
M  V30 93 1 27 72
M  V30 94 1 28 67
M  V30 95 1 29 94
M  V30 96 1 30 61
M  V30 97 1 32 90
M  V30 98 1 33 51
M  V30 99 1 34 58
M  V30 100 1 35 96
M  V30 101 1 37 69
M  V30 102 1 38 78
M  V30 103 1 39 63
M  V30 104 1 40 97
M  V30 105 1 42 87
M  V30 106 1 43 99
M  V30 107 1 44 93
M  V30 108 1 45 60
M  V30 END BOND
M  V30 END CTAB
M  END

$$$$
