
     RDKit          3D

  0  0  0  0  0  0  0  0  0  0999 V3000
M  V30 BEGIN CTAB
M  V30 COUNTS 99 108 0 0 0
M  V30 BEGIN ATOM
M  V30 1 Pd 7.1434 -1.2254 2.4043 0
M  V30 2 Pb 7.1865 -0.4347 1.7972 0
M  V30 3 Pb 6.9199 -1.8719 1.6693 0
M  V30 4 Pb 7.0238 -1.9451 3.0887 0
M  V30 5 Pb 7.3250 -0.5833 3.1456 0
M  V30 6 Pd -6.7635 2.9995 0.8231 0
M  V30 7 Pb -6.0449 3.0413 1.5185 0
M  V30 8 Pb -7.4456 2.8538 0.1151 0
M  V30 9 Pb -6.2410 3.5171 0.1387 0
M  V30 10 Pb -7.2045 2.3123 1.3954 0
M  V30 11 Pd -3.5908 -2.4152 4.1410 0
M  V30 12 Pb -3.5245 -1.4325 4.3225 0
M  V30 13 Pb -2.6616 -2.5754 4.4643 0
M  V30 14 Pb -4.5398 -2.2396 3.8829 0
M  V30 15 Pb -3.6130 -3.3656 3.8275 0
M  V30 16 Pd 3.8851 -0.5137 5.7904 0
M  V30 17 Pb 3.0816 -1.1036 5.7797 0
M  V30 18 Pb 4.4674 -1.3259 5.8483 0
M  V30 19 Pb 4.7080 0.0486 5.7902 0
M  V30 20 Pb 3.3228 0.2918 5.5979 0
M  V30 21 Pd 2.7224 4.4144 0.1621 0
M  V30 22 Pb 3.0183 4.6989 -0.7419 0
M  V30 23 Pb 2.4297 4.1266 1.0773 0
M  V30 24 Pb 3.6713 4.1682 0.3552 0
M  V30 25 Pb 1.7806 4.5177 -0.1763 0
M  V30 26 Pd -2.2506 -3.6390 -0.4526 0
M  V30 27 Pb -2.4189 -4.3188 0.2640 0
M  V30 28 Pb -2.1941 -2.8977 -1.1026 0
M  V30 29 Pb -3.0849 -3.8846 -0.9465 0
M  V30 30 Pb -1.3282 -3.3895 -0.0725 0
M  V30 31 Pd -5.0466 0.3559 -5.2272 0
M  V30 32 Pb -5.9601 0.5714 -4.8968 0
M  V30 33 Pb -4.8139 1.3109 -5.0273 0
M  V30 34 Pb -4.1325 0.1324 -5.5714 0
M  V30 35 Pb -5.2606 -0.6187 -5.1656 0
M  V30 36 Pd 3.3846 -1.9080 -1.6375 0
M  V30 37 Pb 2.7187 -1.3097 -2.0551 0
M  V30 38 Pb 4.1206 -2.4521 -1.2289 0
M  V30 39 Pb 2.7134 -2.1554 -0.9004 0
M  V30 40 Pb 3.9079 -1.7266 -2.4698 0
M  V30 41 Pd 0.4794 2.0409 -5.9408 0
M  V30 42 Pb -0.1245 2.5681 -5.3359 0
M  V30 43 Pb 1.2108 1.4638 -6.3043 0
M  V30 44 Pb 1.1591 2.7490 -5.7925 0
M  V30 45 Pb -0.1952 1.3150 -6.0855 0
M  V30 46 Ag 2.9241 0.8889 5.3761 0
M  V30 47 Fe 2.5371 2.4280 3.6055 0
M  V30 48 Ag 2.2334 3.9106 1.7715 0
M  V30 49 Ag -5.8749 3.7782 -0.4687 0
M  V30 50 Fe -5.2027 3.0635 -2.6397 0
M  V30 51 Ag -4.7096 1.9859 -4.7064 0
M  V30 52 Ag -5.5385 2.9489 2.0657 0
M  V30 53 Fe -4.4405 1.2429 3.3042 0
M  V30 54 Ag -3.5161 -0.6813 4.3498 0
M  V30 55 Ag -7.4219 1.7038 1.7711 0
M  V30 56 Fe -6.4870 -0.2192 2.7994 0
M  V30 57 Ag -5.2360 -2.0038 3.7381 0
M  V30 58 Ag -1.9811 -2.7234 4.7343 0
M  V30 59 Fe 0.2546 -2.1107 5.2348 0
M  V30 60 Ag 2.5026 -1.5751 5.7673 0
M  V30 61 Ag 7.1798 0.2362 1.4645 0
M  V30 62 Fe 5.8360 2.1084 0.8921 0
M  V30 63 Ag 4.3745 3.9082 0.3784 0
M  V30 64 Ag 1.1280 4.5320 -0.5604 0
M  V30 65 Fe 0.1792 3.8162 -2.6277 0
M  V30 66 Ag -0.4340 2.9567 -4.7656 0
M  V30 67 Ag -2.0864 -2.3288 -1.5551 0
M  V30 68 Fe -0.1576 -1.2155 -2.2869 0
M  V30 69 Ag 2.1678 -0.9301 -2.3588 0
M  V30 70 Ag -7.8557 2.6764 -0.4780 0
M  V30 71 Fe -7.4816 1.7320 -2.6139 0
M  V30 72 Ag -6.6077 0.7791 -4.5947 0
M  V30 73 Ag 3.1831 4.8595 -1.4470 0
M  V30 74 Fe 2.5731 4.2168 -3.6375 0
M  V30 75 Ag 1.6567 3.2623 -5.5953 0
M  V30 76 Ag -3.6397 -3.9801 -1.4431 0
M  V30 77 Fe -4.6548 -2.8207 -3.2515 0
M  V30 78 Ag -5.3870 -1.3248 -4.9458 0
M  V30 79 Ag 4.1085 -1.5585 -3.1732 0
M  V30 80 Fe 3.1656 -0.3205 -4.9688 0
M  V30 81 Ag 1.8258 1.0405 -6.3825 0
M  V30 82 Ba 6.8850 -2.4140 3.6581 0
M  V30 83 Ga 5.9248 -2.2410 4.7663 0
M  V30 84 Ba 4.9221 -1.9220 5.8022 0
M  V30 85 Ba 6.7440 -2.3920 1.1523 0
M  V30 86 Ga 5.7140 -2.5941 0.1097 0
M  V30 87 Ba 4.7022 -2.8343 -0.9428 0
M  V30 88 Ba -3.4710 -0.0937 -5.8484 0
M  V30 89 Ga -2.0807 0.3801 -6.0045 0
M  V30 90 Ba -0.6649 0.7435 -6.2169 0
M  V30 91 Ba -0.6320 -3.2044 0.2219 0
M  V30 92 Ga 0.7652 -2.7729 -0.1477 0
M  V30 93 Ba 2.1964 -2.3420 -0.3508 0
M  V30 94 Ba 7.3972 -0.0945 3.7059 0
M  V30 95 Ga 6.4326 0.2252 4.7669 0
M  V30 96 Ba 5.3572 0.4146 5.7495 0
M  V30 97 Ba -3.5531 -4.0548 3.5338 0
M  V30 98 Ga -3.0878 -4.4746 2.1950 0
M  V30 99 Ba -2.6092 -4.7773 0.8295 0
M  V30 END ATOM
M  V30 BEGIN BOND
M  V30 1 1 1 2
M  V30 2 1 1 3
M  V30 3 1 1 4
M  V30 4 1 1 5
M  V30 5 1 6 7
M  V30 6 1 6 8
M  V30 7 1 6 9
M  V30 8 1 6 10
M  V30 9 1 11 12
M  V30 10 1 11 13
M  V30 11 1 11 14
M  V30 12 1 11 15
M  V30 13 1 16 17
M  V30 14 1 16 18
M  V30 15 1 16 19
M  V30 16 1 16 20
M  V30 17 1 21 22
M  V30 18 1 21 23
M  V30 19 1 21 24
M  V30 20 1 21 25
M  V30 21 1 26 27
M  V30 22 1 26 28
M  V30 23 1 26 29
M  V30 24 1 26 30
M  V30 25 1 31 32
M  V30 26 1 31 33
M  V30 27 1 31 34
M  V30 28 1 31 35
M  V30 29 1 36 37
M  V30 30 1 36 38
M  V30 31 1 36 39
M  V30 32 1 36 40
M  V30 33 1 41 42
M  V30 34 1 41 43
M  V30 35 1 41 44
M  V30 36 1 41 45
M  V30 37 1 46 47
M  V30 38 1 47 48
M  V30 39 1 49 50
M  V30 40 1 50 51
M  V30 41 1 52 53
M  V30 42 1 53 54
M  V30 43 1 55 56
M  V30 44 1 56 57
M  V30 45 1 58 59
M  V30 46 1 59 60
M  V30 47 1 61 62
M  V30 48 1 62 63
M  V30 49 1 64 65
M  V30 50 1 65 66
M  V30 51 1 67 68
M  V30 52 1 68 69
M  V30 53 1 70 71
M  V30 54 1 71 72
M  V30 55 1 73 74
M  V30 56 1 74 75
M  V30 57 1 76 77
M  V30 58 1 77 78
M  V30 59 1 79 80
M  V30 60 1 80 81
M  V30 61 1 82 83
M  V30 62 1 83 84
M  V30 63 1 85 86
M  V30 64 1 86 87
M  V30 65 1 88 89
M  V30 66 1 89 90
M  V30 67 1 91 92
M  V30 68 1 92 93
M  V30 69 1 94 95
M  V30 70 1 95 96
M  V30 71 1 97 98
M  V30 72 1 98 99
M  V30 73 1 2 61
M  V30 74 1 3 85
M  V30 75 1 4 82
M  V30 76 1 5 94
M  V30 77 1 7 52
M  V30 78 1 8 70
M  V30 79 1 9 49
M  V30 80 1 10 55
M  V30 81 1 12 54
M  V30 82 1 13 58
M  V30 83 1 14 57
M  V30 84 1 15 97
M  V30 85 1 17 60
M  V30 86 1 18 84
M  V30 87 1 19 96
M  V30 88 1 20 46
M  V30 89 1 22 73
M  V30 90 1 23 48
M  V30 91 1 24 63
M  V30 92 1 25 64
M  V30 93 1 27 99
M  V30 94 1 28 67
M  V30 95 1 29 76
M  V30 96 1 30 91
M  V30 97 1 32 72
M  V30 98 1 33 51
M  V30 99 1 34 88
M  V30 100 1 35 78
M  V30 101 1 37 69
M  V30 102 1 38 87
M  V30 103 1 39 93
M  V30 104 1 40 79
M  V30 105 1 42 66
M  V30 106 1 43 81
M  V30 107 1 44 75
M  V30 108 1 45 90
M  V30 END BOND
M  V30 END CTAB
M  END

$$$$
