
     RDKit          3D

  0  0  0  0  0  0  0  0  0  0999 V3000
M  V30 BEGIN CTAB
M  V30 COUNTS 99 108 0 0 0
M  V30 BEGIN ATOM
M  V30 1 Pd -5.1225 1.6159 -1.1074 0
M  V30 2 Pb -4.9128 2.3320 -0.4412 0
M  V30 3 Pb -5.4364 1.0130 -0.3717 0
M  V30 4 Pb -4.7932 2.1882 -1.8583 0
M  V30 5 Pb -5.2680 0.8729 -1.7544 0
M  V30 6 Pd -0.6896 -5.0767 5.2230 0
M  V30 7 Pb -0.6184 -4.1559 4.8438 0
M  V30 8 Pb -1.5870 -4.8423 5.6172 0
M  V30 9 Pb 0.0271 -5.3606 4.5911 0
M  V30 10 Pb -0.8065 -6.0223 5.5184 0
M  V30 11 Pd 4.5648 2.7188 2.6962 0
M  V30 12 Pb 4.5449 3.7162 2.6825 0
M  V30 13 Pb 4.5942 1.7183 2.6705 0
M  V30 14 Pb 5.3052 2.7184 2.0286 0
M  V30 15 Pb 3.7776 2.7356 3.3176 0
M  V30 16 Pd 4.7969 1.7535 -4.4696 0
M  V30 17 Pb 5.4947 1.9072 -3.7744 0
M  V30 18 Pb 4.0481 1.6377 -5.1261 0
M  V30 19 Pb 4.7908 0.7843 -4.2152 0
M  V30 20 Pb 4.8067 2.7271 -4.6887 0
M  V30 21 Pd 2.5378 -1.3738 -0.4949 0
M  V30 22 Pb 1.8507 -1.2909 0.2255 0
M  V30 23 Pb 3.2260 -1.2266 0.2191 0
M  V30 24 Pb 3.2268 -1.4646 -1.2179 0
M  V30 25 Pb 1.8450 -1.5720 -1.1901 0
M  V30 26 Pd 0.7773 4.8686 -4.9920 0
M  V30 27 Pb 0.9703 4.0545 -5.5448 0
M  V30 28 Pb 0.6129 5.6325 -4.3685 0
M  V30 29 Pb -0.1935 4.6375 -4.9282 0
M  V30 30 Pb 1.7434 5.1105 -5.0539 0
M  V30 31 Pd 0.4503 5.7352 2.2899 0
M  V30 32 Pb -0.5151 5.4755 2.2369 0
M  V30 33 Pb 0.3235 6.3283 1.4953 0
M  V30 34 Pb 0.6225 5.0753 3.0250 0
M  V30 35 Pb 1.4087 6.0083 2.3431 0
M  V30 36 Pd -1.9699 -4.7644 -1.6796 0
M  V30 37 Pb -1.3097 -4.0969 -2.0321 0
M  V30 38 Pb -2.6933 -5.3800 -1.3533 0
M  V30 39 Pb -1.2659 -5.1612 -1.0854 0
M  V30 40 Pb -2.6682 -4.3184 -2.2324 0
M  V30 41 Pd -5.2937 -5.3776 2.6547 0
M  V30 42 Pb -5.0802 -5.0798 3.5991 0
M  V30 43 Pb -5.5007 -4.4270 2.4085 0
M  V30 44 Pb -5.3331 -5.6958 1.7067 0
M  V30 45 Pb -5.1443 -6.3218 2.9389 0
M  V30 46 Ag -0.5728 -3.4967 4.4924 0
M  V30 47 Fe 0.3688 -2.3069 2.6674 0
M  V30 48 Ag 1.3797 -1.2371 0.8054 0
M  V30 49 Ag -4.7213 2.8449 0.0719 0
M  V30 50 Fe -2.9959 4.0840 1.1360 0
M  V30 51 Ag -1.2443 5.3052 2.1777 0
M  V30 52 Ag -1.0664 -6.7127 5.5865 0
M  V30 53 Fe -3.0509 -7.4601 4.5675 0
M  V30 54 Ag -4.9311 -6.9669 3.2397 0
M  V30 55 Ag 5.8080 2.6945 1.4771 0
M  V30 56 Fe 6.0371 2.3807 -0.8613 0
M  V30 57 Ag 5.9609 2.0343 -3.2052 0
M  V30 58 Ag 0.4069 -5.5662 3.9809 0
M  V30 59 Fe 0.0015 -5.5574 1.6402 0
M  V30 60 Ag -0.7268 -5.3978 -0.6159 0
M  V30 61 Ag -4.5412 2.5846 -2.4430 0
M  V30 62 Fe -2.7348 3.5414 -3.6522 0
M  V30 63 Ag -0.9272 4.4976 -4.8601 0
M  V30 64 Ag -5.3079 0.2785 -2.2025 0
M  V30 65 Fe -4.3508 -1.8620 -2.5405 0
M  V30 66 Ag -3.1930 -3.9282 -2.5908 0
M  V30 67 Ag -5.6732 0.5444 0.1663 0
M  V30 68 Fe -5.6446 -1.6010 1.1916 0
M  V30 69 Ag -5.6928 -3.7073 2.2943 0
M  V30 70 Ag 0.4890 6.1562 -3.8466 0
M  V30 71 Fe 0.3453 6.5530 -1.5100 0
M  V30 72 Ag 0.2521 6.7147 0.8570 0
M  V30 73 Ba 1.3660 -1.7363 -1.7450 0
M  V30 74 Ga 0.2475 -2.6697 -1.9931 0
M  V30 75 Ba -0.8774 -3.5629 -2.3401 0
M  V30 76 Ba 4.8270 0.0672 -3.9910 0
M  V30 77 Ga 4.2572 -0.7319 -2.8850 0
M  V30 78 Ba 3.7059 -1.5597 -1.7909 0
M  V30 79 Ba 3.4664 1.6084 -5.6032 0
M  V30 80 Ga 2.2985 2.4973 -5.7907 0
M  V30 81 Ba 1.1571 3.4296 -5.9213 0
M  V30 82 Ba 3.1687 2.7967 3.7571 0
M  V30 83 Ga 1.9710 3.6626 3.6808 0
M  V30 84 Ba 0.8010 4.5582 3.5424 0
M  V30 85 Ba -2.3055 -4.6893 5.8119 0
M  V30 86 Ga -3.5939 -4.7765 5.0644 0
M  V30 87 Ba -4.8740 -4.8691 4.3035 0
M  V30 88 Ba 4.4990 4.4619 2.6586 0
M  V30 89 Ga 3.3422 5.3617 2.5281 0
M  V30 90 Ba 2.1326 6.1888 2.3954 0
M  V30 91 Ba 4.7851 3.4593 -4.8394 0
M  V30 92 Ga 3.6578 4.3945 -4.9812 0
M  V30 93 Ba 2.4742 5.2598 -5.1070 0
M  V30 94 Ba -3.3049 -5.7873 -1.1795 0
M  V30 95 Ga -4.2842 -5.8816 -0.0738 0
M  V30 96 Ba -5.2747 -5.9959 1.0200 0
M  V30 97 Ba 4.6704 0.9732 2.6086 0
M  V30 98 Ga 4.1712 -0.0751 1.6939 0
M  V30 99 Ba 3.6972 -1.1541 0.8018 0
M  V30 END ATOM
M  V30 BEGIN BOND
M  V30 1 1 1 2
M  V30 2 1 1 3
M  V30 3 1 1 4
M  V30 4 1 1 5
M  V30 5 1 6 7
M  V30 6 1 6 8
M  V30 7 1 6 9
M  V30 8 1 6 10
M  V30 9 1 11 12
M  V30 10 1 11 13
M  V30 11 1 11 14
M  V30 12 1 11 15
M  V30 13 1 16 17
M  V30 14 1 16 18
M  V30 15 1 16 19
M  V30 16 1 16 20
M  V30 17 1 21 22
M  V30 18 1 21 23
M  V30 19 1 21 24
M  V30 20 1 21 25
M  V30 21 1 26 27
M  V30 22 1 26 28
M  V30 23 1 26 29
M  V30 24 1 26 30
M  V30 25 1 31 32
M  V30 26 1 31 33
M  V30 27 1 31 34
M  V30 28 1 31 35
M  V30 29 1 36 37
M  V30 30 1 36 38
M  V30 31 1 36 39
M  V30 32 1 36 40
M  V30 33 1 41 42
M  V30 34 1 41 43
M  V30 35 1 41 44
M  V30 36 1 41 45
M  V30 37 1 46 47
M  V30 38 1 47 48
M  V30 39 1 49 50
M  V30 40 1 50 51
M  V30 41 1 52 53
M  V30 42 1 53 54
M  V30 43 1 55 56
M  V30 44 1 56 57
M  V30 45 1 58 59
M  V30 46 1 59 60
M  V30 47 1 61 62
M  V30 48 1 62 63
M  V30 49 1 64 65
M  V30 50 1 65 66
M  V30 51 1 67 68
M  V30 52 1 68 69
M  V30 53 1 70 71
M  V30 54 1 71 72
M  V30 55 1 73 74
M  V30 56 1 74 75
M  V30 57 1 76 77
M  V30 58 1 77 78
M  V30 59 1 79 80
M  V30 60 1 80 81
M  V30 61 1 82 83
M  V30 62 1 83 84
M  V30 63 1 85 86
M  V30 64 1 86 87
M  V30 65 1 88 89
M  V30 66 1 89 90
M  V30 67 1 91 92
M  V30 68 1 92 93
M  V30 69 1 94 95
M  V30 70 1 95 96
M  V30 71 1 97 98
M  V30 72 1 98 99
M  V30 73 1 2 49
M  V30 74 1 3 67
M  V30 75 1 4 61
M  V30 76 1 5 64
M  V30 77 1 7 46
M  V30 78 1 8 85
M  V30 79 1 9 58
M  V30 80 1 10 52
M  V30 81 1 12 88
M  V30 82 1 13 97
M  V30 83 1 14 55
M  V30 84 1 15 82
M  V30 85 1 17 57
M  V30 86 1 18 79
M  V30 87 1 19 76
M  V30 88 1 20 91
M  V30 89 1 22 48
M  V30 90 1 23 99
M  V30 91 1 24 78
M  V30 92 1 25 73
M  V30 93 1 27 81
M  V30 94 1 28 70
M  V30 95 1 29 63
M  V30 96 1 30 93
M  V30 97 1 32 51
M  V30 98 1 33 72
M  V30 99 1 34 84
M  V30 100 1 35 90
M  V30 101 1 37 75
M  V30 102 1 38 94
M  V30 103 1 39 60
M  V30 104 1 40 66
M  V30 105 1 42 87
M  V30 106 1 43 69
M  V30 107 1 44 96
M  V30 108 1 45 54
M  V30 END BOND
M  V30 END CTAB
M  END

$$$$
