
     RDKit          3D

  0  0  0  0  0  0  0  0  0  0999 V3000
M  V30 BEGIN CTAB
M  V30 COUNTS 99 108 0 0 0
M  V30 BEGIN ATOM
M  V30 1 Pd -2.5929 -3.7882 -1.8935 0
M  V30 2 Pb -3.1384 -4.0274 -1.0893 0
M  V30 3 Pb -3.2757 -3.0998 -2.1397 0
M  V30 4 Pb -1.9550 -4.5431 -1.7343 0
M  V30 5 Pb -2.0411 -3.4979 -2.6724 0
M  V30 6 Pd -1.6412 6.9129 -3.0804 0
M  V30 7 Pb -1.3341 6.5134 -2.2174 0
M  V30 8 Pb -2.0016 7.2119 -3.9585 0
M  V30 9 Pb -0.7646 6.7616 -3.5367 0
M  V30 10 Pb -2.5818 6.8825 -2.7436 0
M  V30 11 Pd 0.3973 0.3571 6.0198 0
M  V30 12 Pb 0.2292 -0.5872 6.2955 0
M  V30 13 Pb 0.6365 1.2888 5.7371 0
M  V30 14 Pb 1.2630 0.3528 6.5138 0
M  V30 15 Pb -0.4528 0.3347 5.4853 0
M  V30 16 Pd 6.4178 -1.3104 3.4427 0
M  V30 17 Pb 6.3773 -0.9370 4.3642 0
M  V30 18 Pb 6.1905 -2.2066 3.8136 0
M  V30 19 Pb 6.5412 -0.3858 3.0830 0
M  V30 20 Pb 6.3087 -1.7123 2.5318 0
M  V30 21 Pd 3.0456 2.9273 1.8297 0
M  V30 22 Pb 2.1545 3.3045 1.5848 0
M  V30 23 Pb 2.7920 3.0993 2.7845 0
M  V30 24 Pb 3.9851 2.6438 2.0467 0
M  V30 25 Pb 3.2381 2.7639 0.8626 0
M  V30 26 Pd 1.6042 -6.1771 1.3303 0
M  V30 27 Pb 2.1735 -6.0986 2.1446 0
M  V30 28 Pb 0.8639 -6.5849 1.8641 0
M  V30 29 Pb 1.0583 -6.2770 0.4995 0
M  V30 30 Pb 2.3385 -5.7024 0.8382 0
M  V30 31 Pd -2.2617 -3.7205 3.7692 0
M  V30 32 Pb -2.8883 -3.8507 2.9974 0
M  V30 33 Pb -2.0507 -4.6980 3.7273 0
M  V30 34 Pb -2.4397 -2.7318 3.8053 0
M  V30 35 Pb -1.6812 -3.6266 4.5760 0
M  V30 36 Pd 0.2432 2.3836 -5.4099 0
M  V30 37 Pb 0.9841 2.3557 -4.7377 0
M  V30 38 Pb -0.4742 2.3447 -6.1163 0
M  V30 39 Pb 0.3795 3.3811 -5.4358 0
M  V30 40 Pb 0.1650 1.3886 -5.3694 0
M  V30 41 Pd -5.1819 2.4568 -5.9708 0
M  V30 42 Pb -5.0658 3.3171 -6.4586 0
M  V30 43 Pb -5.2713 1.6255 -5.4208 0
M  V30 44 Pb -4.4910 2.0704 -6.5812 0
M  V30 45 Pb -5.6957 2.9627 -5.2788 0
M  V30 46 Ag -1.1831 6.1662 -1.5704 0
M  V30 47 Fe 0.1891 4.9039 -0.1009 0
M  V30 48 Ag 1.5092 3.6448 1.4182 0
M  V30 49 Ag 3.3551 2.6445 0.1318 0
M  V30 50 Fe 2.4556 2.4872 -2.0609 0
M  V30 51 Ag 1.5582 2.3295 -4.2544 0
M  V30 52 Ag 5.9297 -2.8645 4.0489 0
M  V30 53 Fe 4.3308 -4.5295 3.5128 0
M  V30 54 Ag 2.6571 -5.9994 2.7042 0
M  V30 55 Ag -3.3021 6.7209 -2.6159 0
M  V30 56 Fe -4.8569 5.1606 -3.4999 0
M  V30 57 Ag -5.9139 3.4343 -4.7394 0
M  V30 58 Ag -2.3337 7.2857 -4.6192 0
M  V30 59 Fe -3.6773 5.8617 -5.9442 0
M  V30 60 Ag -4.9093 3.9973 -6.7163 0
M  V30 61 Ag 6.1244 -2.0814 1.9028 0
M  V30 62 Fe 4.5743 -3.6903 1.0860 0
M  V30 63 Ag 2.9100 -5.3038 0.5516 0
M  V30 64 Ag 1.9534 0.3545 6.7963 0
M  V30 65 Fe 4.1858 -0.0988 6.1507 0
M  V30 66 Ag 6.1926 -0.6818 5.0383 0
M  V30 67 Ag -1.6285 -3.2374 -3.2389 0
M  V30 68 Fe -0.7436 -1.3208 -4.3225 0
M  V30 69 Ag 0.1054 0.6423 -5.3504 0
M  V30 70 Ag -3.8131 -2.6292 -2.3702 0
M  V30 71 Fe -4.5494 -0.7839 -3.6731 0
M  V30 72 Ag -5.3620 1.0488 -4.9482 0
M  V30 73 Ba -3.5720 -4.1625 -0.4912 0
M  V30 74 Ga -3.4409 -4.0746 0.9779 0
M  V30 75 Ba -3.3835 -4.0088 2.4528 0
M  V30 76 Ba 6.5990 0.3272 2.8570 0
M  V30 77 Ga 5.6314 1.3876 2.5015 0
M  V30 78 Ba 4.7197 2.4936 2.1376 0
M  V30 79 Ba -1.0880 0.2776 5.0819 0
M  V30 80 Ga -1.8220 -0.8511 4.4623 0
M  V30 81 Ba -2.5497 -1.9856 3.8458 0
M  V30 82 Ba 0.1267 -1.3040 6.4828 0
M  V30 83 Ga -0.5701 -2.4354 5.8487 0
M  V30 84 Ba -1.2727 -3.5544 5.1989 0
M  V30 85 Ba -0.1803 6.5942 -3.9785 0
M  V30 86 Ga 0.2027 5.3477 -4.6829 0
M  V30 87 Ba 0.5901 4.1081 -5.3969 0
M  V30 88 Ba -1.4989 -5.1388 -1.6984 0
M  V30 89 Ga -0.4239 -5.7171 -0.8702 0
M  V30 90 Ba 0.6555 -6.3888 -0.1220 0
M  V30 91 Ba -0.9782 2.1825 -6.6595 0
M  V30 92 Ga -2.4442 2.0445 -6.8334 0
M  V30 93 Ba -3.9080 1.9081 -7.0269 0
M  V30 94 Ba 0.2972 -6.8474 2.2790 0
M  V30 95 Ga -0.8024 -6.1652 2.9878 0
M  V30 96 Ba -1.8792 -5.4273 3.6758 0
M  V30 97 Ba 0.9057 1.9748 5.5810 0
M  V30 98 Ga 1.7093 2.6026 4.5085 0
M  V30 99 Ba 2.5124 3.2734 3.4622 0
M  V30 END ATOM
M  V30 BEGIN BOND
M  V30 1 1 1 2
M  V30 2 1 1 3
M  V30 3 1 1 4
M  V30 4 1 1 5
M  V30 5 1 6 7
M  V30 6 1 6 8
M  V30 7 1 6 9
M  V30 8 1 6 10
M  V30 9 1 11 12
M  V30 10 1 11 13
M  V30 11 1 11 14
M  V30 12 1 11 15
M  V30 13 1 16 17
M  V30 14 1 16 18
M  V30 15 1 16 19
M  V30 16 1 16 20
M  V30 17 1 21 22
M  V30 18 1 21 23
M  V30 19 1 21 24
M  V30 20 1 21 25
M  V30 21 1 26 27
M  V30 22 1 26 28
M  V30 23 1 26 29
M  V30 24 1 26 30
M  V30 25 1 31 32
M  V30 26 1 31 33
M  V30 27 1 31 34
M  V30 28 1 31 35
M  V30 29 1 36 37
M  V30 30 1 36 38
M  V30 31 1 36 39
M  V30 32 1 36 40
M  V30 33 1 41 42
M  V30 34 1 41 43
M  V30 35 1 41 44
M  V30 36 1 41 45
M  V30 37 1 46 47
M  V30 38 1 47 48
M  V30 39 1 49 50
M  V30 40 1 50 51
M  V30 41 1 52 53
M  V30 42 1 53 54
M  V30 43 1 55 56
M  V30 44 1 56 57
M  V30 45 1 58 59
M  V30 46 1 59 60
M  V30 47 1 61 62
M  V30 48 1 62 63
M  V30 49 1 64 65
M  V30 50 1 65 66
M  V30 51 1 67 68
M  V30 52 1 68 69
M  V30 53 1 70 71
M  V30 54 1 71 72
M  V30 55 1 73 74
M  V30 56 1 74 75
M  V30 57 1 76 77
M  V30 58 1 77 78
M  V30 59 1 79 80
M  V30 60 1 80 81
M  V30 61 1 82 83
M  V30 62 1 83 84
M  V30 63 1 85 86
M  V30 64 1 86 87
M  V30 65 1 88 89
M  V30 66 1 89 90
M  V30 67 1 91 92
M  V30 68 1 92 93
M  V30 69 1 94 95
M  V30 70 1 95 96
M  V30 71 1 97 98
M  V30 72 1 98 99
M  V30 73 1 2 73
M  V30 74 1 3 70
M  V30 75 1 4 88
M  V30 76 1 5 67
M  V30 77 1 7 46
M  V30 78 1 8 58
M  V30 79 1 9 85
M  V30 80 1 10 55
M  V30 81 1 12 82
M  V30 82 1 13 97
M  V30 83 1 14 64
M  V30 84 1 15 79
M  V30 85 1 17 66
M  V30 86 1 18 52
M  V30 87 1 19 76
M  V30 88 1 20 61
M  V30 89 1 22 48
M  V30 90 1 23 99
M  V30 91 1 24 78
M  V30 92 1 25 49
M  V30 93 1 27 54
M  V30 94 1 28 94
M  V30 95 1 29 90
M  V30 96 1 30 63
M  V30 97 1 32 75
M  V30 98 1 33 96
M  V30 99 1 34 81
M  V30 100 1 35 84
M  V30 101 1 37 51
M  V30 102 1 38 91
M  V30 103 1 39 87
M  V30 104 1 40 69
M  V30 105 1 42 60
M  V30 106 1 43 72
M  V30 107 1 44 93
M  V30 108 1 45 57
M  V30 END BOND
M  V30 END CTAB
M  END

$$$$
