
     RDKit          3D

  0  0  0  0  0  0  0  0  0  0999 V3000
M  V30 BEGIN CTAB
M  V30 COUNTS 99 108 0 0 0
M  V30 BEGIN ATOM
M  V30 1 Pd -3.7602 0.3384 4.2288 0
M  V30 2 Pb -3.2390 0.8651 3.5567 0
M  V30 3 Pb -4.2260 -0.2497 4.8900 0
M  V30 4 Pb -4.3363 -0.0579 3.5124 0
M  V30 5 Pb -3.1978 0.7480 4.9479 0
M  V30 6 Pd -4.5415 -4.5008 3.4244 0
M  V30 7 Pb -4.2356 -4.9352 2.5777 0
M  V30 8 Pb -5.0419 -3.8102 2.9064 0
M  V30 9 Pb -4.8061 -4.0274 4.2654 0
M  V30 10 Pb -3.9397 -5.1191 3.9281 0
M  V30 11 Pd -2.3224 4.3015 -2.7968 0
M  V30 12 Pb -2.3694 3.9070 -3.7117 0
M  V30 13 Pb -2.2305 4.6518 -1.8636 0
M  V30 14 Pb -1.4857 4.7726 -3.0757 0
M  V30 15 Pb -3.0910 3.7260 -2.5182 0
M  V30 16 Pd 5.0355 2.8934 -4.5560 0
M  V30 17 Pb 5.8585 2.3343 -4.6309 0
M  V30 18 Pb 4.6561 2.4127 -5.3486 0
M  V30 19 Pb 5.3826 3.2492 -3.6732 0
M  V30 20 Pb 4.2383 3.4978 -4.4855 0
M  V30 21 Pd -1.8287 -0.3975 -0.9041 0
M  V30 22 Pb -1.9171 -1.0228 -1.6796 0
M  V30 23 Pb -0.9705 -0.8656 -0.6808 0
M  V30 24 Pb -2.6745 0.0819 -1.1468 0
M  V30 25 Pb -1.7269 0.2525 -0.1496 0
M  V30 26 Pd 0.1312 -4.6042 2.2284 0
M  V30 27 Pb -0.5405 -5.0282 1.6231 0
M  V30 28 Pb 0.7501 -4.1218 2.8443 0
M  V30 29 Pb -0.2316 -5.1624 2.9763 0
M  V30 30 Pb 0.4559 -4.0028 1.4966 0
M  V30 31 Pd 1.1845 -1.1127 -5.3140 0
M  V30 32 Pb 0.3916 -1.5718 -4.9080 0
M  V30 33 Pb 1.7676 -1.5892 -4.6526 0
M  V30 34 Pb 0.5553 -0.5664 -5.8601 0
M  V30 35 Pb 1.9463 -0.6276 -5.7584 0
M  V30 36 Pd 0.8089 2.4113 3.6691 0
M  V30 37 Pb 1.2444 2.3695 2.7705 0
M  V30 38 Pb 0.2673 3.1782 3.3246 0
M  V30 39 Pb 0.3009 2.4050 4.5293 0
M  V30 40 Pb 1.3058 1.5987 3.9678 0
M  V30 41 Pd 5.2720 0.6851 0.2124 0
M  V30 42 Pb 5.6143 1.6089 0.0048 0
M  V30 43 Pb 6.1662 0.3032 -0.0115 0
M  V30 44 Pb 4.8818 -0.2270 0.1109 0
M  V30 45 Pb 4.3645 1.0873 0.3321 0
M  V30 46 Ag -0.8292 5.0513 -3.3083 0
M  V30 47 Fe 1.4246 4.5412 -3.8659 0
M  V30 48 Ag 3.6698 3.9867 -4.4153 0
M  V30 49 Ag 2.1233 -1.9093 -4.0714 0
M  V30 50 Fe 3.3608 -1.5464 -2.0751 0
M  V30 51 Ag 4.5972 -0.8621 -0.1647 0
M  V30 52 Ag -2.3346 3.5609 -4.3727 0
M  V30 53 Fe -1.2390 1.7641 -5.4622 0
M  V30 54 Ag 0.0576 -0.0949 -6.1531 0
M  V30 55 Ag 1.1783 -3.6770 3.2655 0
M  V30 56 Fe 1.5219 -1.3949 3.8128 0
M  V30 57 Ag 1.6235 0.9493 4.1602 0
M  V30 58 Ag 6.4584 1.9059 -4.5347 0
M  V30 59 Fe 7.1687 0.7287 -2.6231 0
M  V30 60 Ag 6.7710 0.1023 -0.3897 0
M  V30 61 Ag -2.1329 4.8766 -1.1538 0
M  V30 62 Fe -1.1721 4.3779 0.9609 0
M  V30 63 Ag -0.1424 3.7137 2.9961 0
M  V30 64 Ba 1.4936 2.3478 2.0640 0
M  V30 65 Ga 2.6334 1.8596 1.2659 0
M  V30 66 Ba 3.6974 1.4295 0.3399 0
M  V30 67 Ba -3.4150 -5.5425 4.2550 0
M  V30 68 Ga -1.9747 -5.6054 3.9418 0
M  V30 69 Ba -0.5618 -5.5635 3.5189 0
M  V30 70 Ba -4.5577 -0.7447 5.3455 0
M  V30 71 Ga -4.8009 -2.1883 5.1609 0
M  V30 72 Ba -4.9917 -3.6221 4.8693 0
M  V30 73 Ba 5.6413 3.4785 -2.9922 0
M  V30 74 Ga 5.7394 2.8913 -1.6244 0
M  V30 75 Ba 5.8280 2.2860 -0.2640 0
M  V30 76 Ba -4.7857 -0.3805 3.0045 0
M  V30 77 Ga -5.1078 -1.7925 2.7292 0
M  V30 78 Ba -5.3512 -3.2343 2.5431 0
M  V30 79 Ba -0.3213 -1.2311 -0.5725 0
M  V30 80 Ga 0.1731 -2.3790 0.2163 0
M  V30 81 Ba 0.7164 -3.5194 0.9835 0
M  V30 82 Ba -2.7602 1.0813 5.4587 0
M  V30 83 Ga -1.4389 1.7277 5.3526 0
M  V30 84 Ba -0.1178 2.3503 5.1481 0
M  V30 85 Ba -3.9464 -5.2462 1.9602 0
M  V30 86 Ga -2.5414 -5.3235 1.5238 0
M  V30 87 Ba -1.0997 -5.3215 1.2210 0
M  V30 88 Ba -1.9412 -1.4989 -2.2589 0
M  V30 89 Ga -1.0841 -1.7041 -3.4438 0
M  V30 90 Ba -0.2217 -1.9034 -4.6259 0
M  V30 91 Ba -3.6202 3.2324 -2.3210 0
M  V30 92 Ga -3.4997 1.8513 -1.8122 0
M  V30 93 Ba -3.2928 0.4790 -1.3074 0
M  V30 94 Ba -2.8026 1.2420 3.0763 0
M  V30 95 Ga -2.2498 0.9958 1.7297 0
M  V30 96 Ba -1.6811 0.7784 0.3849 0
M  V30 97 Ba 4.3981 1.9815 -5.9085 0
M  V30 98 Ga 3.4185 0.8746 -6.0070 0
M  V30 99 Ba 2.4545 -0.2392 -6.1629 0
M  V30 END ATOM
M  V30 BEGIN BOND
M  V30 1 1 1 2
M  V30 2 1 1 3
M  V30 3 1 1 4
M  V30 4 1 1 5
M  V30 5 1 6 7
M  V30 6 1 6 8
M  V30 7 1 6 9
M  V30 8 1 6 10
M  V30 9 1 11 12
M  V30 10 1 11 13
M  V30 11 1 11 14
M  V30 12 1 11 15
M  V30 13 1 16 17
M  V30 14 1 16 18
M  V30 15 1 16 19
M  V30 16 1 16 20
M  V30 17 1 21 22
M  V30 18 1 21 23
M  V30 19 1 21 24
M  V30 20 1 21 25
M  V30 21 1 26 27
M  V30 22 1 26 28
M  V30 23 1 26 29
M  V30 24 1 26 30
M  V30 25 1 31 32
M  V30 26 1 31 33
M  V30 27 1 31 34
M  V30 28 1 31 35
M  V30 29 1 36 37
M  V30 30 1 36 38
M  V30 31 1 36 39
M  V30 32 1 36 40
M  V30 33 1 41 42
M  V30 34 1 41 43
M  V30 35 1 41 44
M  V30 36 1 41 45
M  V30 37 1 46 47
M  V30 38 1 47 48
M  V30 39 1 49 50
M  V30 40 1 50 51
M  V30 41 1 52 53
M  V30 42 1 53 54
M  V30 43 1 55 56
M  V30 44 1 56 57
M  V30 45 1 58 59
M  V30 46 1 59 60
M  V30 47 1 61 62
M  V30 48 1 62 63
M  V30 49 1 64 65
M  V30 50 1 65 66
M  V30 51 1 67 68
M  V30 52 1 68 69
M  V30 53 1 70 71
M  V30 54 1 71 72
M  V30 55 1 73 74
M  V30 56 1 74 75
M  V30 57 1 76 77
M  V30 58 1 77 78
M  V30 59 1 79 80
M  V30 60 1 80 81
M  V30 61 1 82 83
M  V30 62 1 83 84
M  V30 63 1 85 86
M  V30 64 1 86 87
M  V30 65 1 88 89
M  V30 66 1 89 90
M  V30 67 1 91 92
M  V30 68 1 92 93
M  V30 69 1 94 95
M  V30 70 1 95 96
M  V30 71 1 97 98
M  V30 72 1 98 99
M  V30 73 1 2 94
M  V30 74 1 3 70
M  V30 75 1 4 76
M  V30 76 1 5 82
M  V30 77 1 7 85
M  V30 78 1 8 78
M  V30 79 1 9 72
M  V30 80 1 10 67
M  V30 81 1 12 52
M  V30 82 1 13 61
M  V30 83 1 14 46
M  V30 84 1 15 91
M  V30 85 1 17 58
M  V30 86 1 18 97
M  V30 87 1 19 73
M  V30 88 1 20 48
M  V30 89 1 22 88
M  V30 90 1 23 79
M  V30 91 1 24 93
M  V30 92 1 25 96
M  V30 93 1 27 87
M  V30 94 1 28 55
M  V30 95 1 29 69
M  V30 96 1 30 81
M  V30 97 1 32 90
M  V30 98 1 33 49
M  V30 99 1 34 54
M  V30 100 1 35 99
M  V30 101 1 37 64
M  V30 102 1 38 63
M  V30 103 1 39 84
M  V30 104 1 40 57
M  V30 105 1 42 75
M  V30 106 1 43 60
M  V30 107 1 44 51
M  V30 108 1 45 66
M  V30 END BOND
M  V30 END CTAB
M  END

$$$$
