
     RDKit          3D

  0  0  0  0  0  0  0  0  0  0999 V3000
M  V30 BEGIN CTAB
M  V30 COUNTS 99 108 0 0 0
M  V30 BEGIN ATOM
M  V30 1 Pd -4.9149 0.1311 1.0432 0
M  V30 2 Pb -4.8657 0.4209 0.0902 0
M  V30 3 Pb -5.1731 -0.7721 0.7123 0
M  V30 4 Pb -4.6640 1.0603 1.3236 0
M  V30 5 Pb -4.9414 -0.2120 1.9840 0
M  V30 6 Pd -0.9349 3.8839 3.3078 0
M  V30 7 Pb -0.1562 4.0831 3.8934 0
M  V30 8 Pb -0.6242 2.9301 3.2705 0
M  V30 9 Pb -1.7845 3.7046 2.8057 0
M  V30 10 Pb -1.0826 4.8687 3.2182 0
M  V30 11 Pd 3.7219 3.0870 2.1780 0
M  V30 12 Pb 4.0015 2.7376 1.2847 0
M  V30 13 Pb 3.1027 2.3135 2.3523 0
M  V30 14 Pb 4.1889 3.9443 1.9776 0
M  V30 15 Pb 3.4740 3.4528 3.0667 0
M  V30 16 Pd -0.2968 3.0586 -4.0158 0
M  V30 17 Pb 0.5938 3.5134 -3.9452 0
M  V30 18 Pb 0.0967 2.2349 -4.4331 0
M  V30 19 Pb -0.7223 3.8664 -3.6127 0
M  V30 20 Pb -1.1956 2.6295 -4.0134 0
M  V30 21 Pd 3.8755 -1.6545 -0.3978 0
M  V30 22 Pb 3.2961 -1.2574 0.3127 0
M  V30 23 Pb 4.4064 -2.0589 -1.1407 0
M  V30 24 Pb 4.2046 -0.7478 -0.6471 0
M  V30 25 Pb 3.4968 -2.5444 -0.1451 0
M  V30 26 Pd 1.2837 6.5486 -0.3960 0
M  V30 27 Pb 0.4160 6.4748 -0.8804 0
M  V30 28 Pb 1.7476 6.1684 -1.2022 0
M  V30 29 Pb 2.1700 6.6287 0.0653 0
M  V30 30 Pb 0.7815 6.8813 0.4087 0
M  V30 31 Pd -2.5231 -6.8521 -0.8131 0
M  V30 32 Pb -1.7583 -7.4812 -0.7326 0
M  V30 33 Pb -2.8494 -7.0775 0.1055 0
M  V30 34 Pb -2.1690 -6.5439 -1.7174 0
M  V30 35 Pb -3.2904 -6.2211 -0.8764 0
M  V30 36 Pd -2.1535 -3.7570 3.1525 0
M  V30 37 Pb -2.6696 -4.6150 3.1288 0
M  V30 38 Pb -1.3745 -4.2242 2.7341 0
M  V30 39 Pb -2.9203 -3.2415 3.5406 0
M  V30 40 Pb -1.5976 -2.9271 3.1495 0
M  V30 41 Pd 1.9663 -4.5304 -4.0157 0
M  V30 42 Pb 1.7273 -3.6491 -4.4331 0
M  V30 43 Pb 0.9974 -4.8425 -4.0014 0
M  V30 44 Pb 2.2313 -5.3969 -3.6082 0
M  V30 45 Pb 2.9188 -4.2342 -3.9721 0
M  V30 46 Ag -1.1171 -7.8479 -0.7679 0
M  V30 47 Fe 0.8834 -7.3257 -1.8955 0
M  V30 48 Ag 2.3162 -6.0418 -3.2544 0
M  V30 49 Ag -5.3511 -1.4332 0.4157 0
M  V30 50 Fe -4.6565 -3.6011 -0.2434 0
M  V30 51 Ag -3.8655 -5.7467 -0.8655 0
M  V30 52 Ag 0.3462 1.6071 -4.7674 0
M  V30 53 Fe 0.9666 -0.6896 -4.7206 0
M  V30 54 Ag 1.6034 -2.9818 -4.7619 0
M  V30 55 Ag -4.7969 0.5990 -0.6323 0
M  V30 56 Fe -3.4062 1.4551 -2.3510 0
M  V30 57 Ag -1.8782 2.3397 -3.9332 0
M  V30 58 Ag 3.1481 -3.1672 0.0838 0
M  V30 59 Fe 1.2248 -3.9618 1.2278 0
M  V30 60 Ag -0.7668 -4.5094 2.3994 0
M  V30 61 Ag 2.8123 -1.0125 0.8294 0
M  V30 62 Fe 0.8422 -1.5663 2.0319 0
M  V30 63 Ag -1.1255 -2.3476 3.1049 0
M  V30 64 Ba 1.2382 3.8900 -3.8470 0
M  V30 65 Ga 1.6752 4.8784 -2.8348 0
M  V30 66 Ba 2.0812 5.8642 -1.8072 0
M  V30 67 Ba 4.2468 2.5081 0.6149 0
M  V30 68 Ga 4.3360 1.2288 -0.1077 0
M  V30 69 Ba 4.4200 -0.0551 -0.8227 0
M  V30 70 Ba -4.9601 -0.5279 2.6661 0
M  V30 71 Ga -4.2276 -1.6643 3.2640 0
M  V30 72 Ba -3.4686 -2.8063 3.8166 0
M  V30 73 Ba -1.0552 4.4623 -3.3065 0
M  V30 74 Ga -0.6594 5.4464 -2.2875 0
M  V30 75 Ba -0.2204 6.4079 -1.2646 0
M  V30 76 Ba -1.0875 5.6098 3.0969 0
M  V30 77 Ga -0.3823 6.3939 2.0584 0
M  V30 78 Ba 0.3545 7.1058 0.9901 0
M  V30 79 Ba -3.1139 -7.1666 0.8026 0
M  V30 80 Ga -3.0831 -6.2588 1.9673 0
M  V30 81 Ba -3.0023 -5.2872 3.0770 0
M  V30 82 Ba -0.2779 2.2618 3.2077 0
M  V30 83 Ga 1.1360 1.9696 2.8598 0
M  V30 84 Ba 2.5676 1.7997 2.5032 0
M  V30 85 Ba 4.7607 -2.3637 -1.7253 0
M  V30 86 Ga 4.2471 -3.1888 -2.8313 0
M  V30 87 Ba 3.6267 -4.0063 -3.8872 0
M  V30 88 Ba 0.4275 4.2220 4.3337 0
M  V30 89 Ga 1.8565 4.0085 4.1029 0
M  V30 90 Ba 3.2389 3.7332 3.7120 0
M  V30 91 Ba -1.9431 -6.2971 -2.4093 0
M  V30 92 Ga -0.7860 -5.6956 -3.1437 0
M  V30 93 Ba 0.2729 -5.0960 -4.0154 0
M  V30 94 Ba -4.5087 1.7849 1.4545 0
M  V30 95 Ga -3.4372 2.6536 1.9867 0
M  V30 96 Ba -2.4626 3.6486 2.4829 0
M  V30 97 Ba 4.4301 4.6314 1.8116 0
M  V30 98 Ga 3.6893 5.6887 1.0990 0
M  V30 99 Ba 2.8542 6.6663 0.3764 0
M  V30 END ATOM
M  V30 BEGIN BOND
M  V30 1 1 1 2
M  V30 2 1 1 3
M  V30 3 1 1 4
M  V30 4 1 1 5
M  V30 5 1 6 7
M  V30 6 1 6 8
M  V30 7 1 6 9
M  V30 8 1 6 10
M  V30 9 1 11 12
M  V30 10 1 11 13
M  V30 11 1 11 14
M  V30 12 1 11 15
M  V30 13 1 16 17
M  V30 14 1 16 18
M  V30 15 1 16 19
M  V30 16 1 16 20
M  V30 17 1 21 22
M  V30 18 1 21 23
M  V30 19 1 21 24
M  V30 20 1 21 25
M  V30 21 1 26 27
M  V30 22 1 26 28
M  V30 23 1 26 29
M  V30 24 1 26 30
M  V30 25 1 31 32
M  V30 26 1 31 33
M  V30 27 1 31 34
M  V30 28 1 31 35
M  V30 29 1 36 37
M  V30 30 1 36 38
M  V30 31 1 36 39
M  V30 32 1 36 40
M  V30 33 1 41 42
M  V30 34 1 41 43
M  V30 35 1 41 44
M  V30 36 1 41 45
M  V30 37 1 46 47
M  V30 38 1 47 48
M  V30 39 1 49 50
M  V30 40 1 50 51
M  V30 41 1 52 53
M  V30 42 1 53 54
M  V30 43 1 55 56
M  V30 44 1 56 57
M  V30 45 1 58 59
M  V30 46 1 59 60
M  V30 47 1 61 62
M  V30 48 1 62 63
M  V30 49 1 64 65
M  V30 50 1 65 66
M  V30 51 1 67 68
M  V30 52 1 68 69
M  V30 53 1 70 71
M  V30 54 1 71 72
M  V30 55 1 73 74
M  V30 56 1 74 75
M  V30 57 1 76 77
M  V30 58 1 77 78
M  V30 59 1 79 80
M  V30 60 1 80 81
M  V30 61 1 82 83
M  V30 62 1 83 84
M  V30 63 1 85 86
M  V30 64 1 86 87
M  V30 65 1 88 89
M  V30 66 1 89 90
M  V30 67 1 91 92
M  V30 68 1 92 93
M  V30 69 1 94 95
M  V30 70 1 95 96
M  V30 71 1 97 98
M  V30 72 1 98 99
M  V30 73 1 2 55
M  V30 74 1 3 49
M  V30 75 1 4 94
M  V30 76 1 5 70
M  V30 77 1 7 88
M  V30 78 1 8 82
M  V30 79 1 9 96
M  V30 80 1 10 76
M  V30 81 1 12 67
M  V30 82 1 13 84
M  V30 83 1 14 97
M  V30 84 1 15 90
M  V30 85 1 17 64
M  V30 86 1 18 52
M  V30 87 1 19 73
M  V30 88 1 20 57
M  V30 89 1 22 61
M  V30 90 1 23 85
M  V30 91 1 24 69
M  V30 92 1 25 58
M  V30 93 1 27 75
M  V30 94 1 28 66
M  V30 95 1 29 99
M  V30 96 1 30 78
M  V30 97 1 32 46
M  V30 98 1 33 79
M  V30 99 1 34 91
M  V30 100 1 35 51
M  V30 101 1 37 81
M  V30 102 1 38 60
M  V30 103 1 39 72
M  V30 104 1 40 63
M  V30 105 1 42 54
M  V30 106 1 43 93
M  V30 107 1 44 48
M  V30 108 1 45 87
M  V30 END BOND
M  V30 END CTAB
M  END

$$$$
