
     RDKit          3D

  0  0  0  0  0  0  0  0  0  0999 V3000
M  V30 BEGIN CTAB
M  V30 COUNTS 99 108 0 0 0
M  V30 BEGIN ATOM
M  V30 1 Pd 3.8387 1.3788 -4.7312 0
M  V30 2 Pb 3.4120 2.1492 -5.1992 0
M  V30 3 Pb 4.5889 1.9253 -4.3510 0
M  V30 4 Pb 3.0712 0.8391 -5.0656 0
M  V30 5 Pb 4.1539 0.5506 -4.2620 0
M  V30 6 Pd -2.1178 3.6164 -2.8435 0
M  V30 7 Pb -2.2594 3.4764 -1.8599 0
M  V30 8 Pb -2.8038 2.9226 -3.0725 0
M  V30 9 Pb -1.8533 3.7344 -3.7970 0
M  V30 10 Pb -1.4005 4.2977 -2.7065 0
M  V30 11 Pd 5.1751 5.0722 4.3021 0
M  V30 12 Pb 5.0035 6.0501 4.2581 0
M  V30 13 Pb 5.3159 4.0853 4.3565 0
M  V30 14 Pb 5.8339 5.1532 3.5307 0
M  V30 15 Pb 4.4044 4.9752 4.9303 0
M  V30 16 Pd 1.5774 1.6839 3.5315 0
M  V30 17 Pb 1.5498 2.4432 4.1847 0
M  V30 18 Pb 0.6776 1.9245 3.1559 0
M  V30 19 Pb 1.6430 0.8901 2.9292 0
M  V30 20 Pb 2.5016 1.4783 3.8501 0
M  V30 21 Pd -6.9354 -4.5913 3.5982 0
M  V30 22 Pb -7.4717 -4.7681 2.7620 0
M  V30 23 Pb -6.4471 -5.4544 3.4843 0
M  V30 24 Pb -7.3982 -3.7132 3.6844 0
M  V30 25 Pb -6.2418 -4.3482 4.2742 0
M  V30 26 Pd -0.1767 -5.7342 2.3275 0
M  V30 27 Pb -0.6286 -5.2341 3.0694 0
M  V30 28 Pb 0.3984 -4.9486 2.1051 0
M  V30 29 Pb 0.2295 -6.2483 1.5735 0
M  V30 30 Pb -0.8420 -6.4592 2.4864 0
M  V30 31 Pd -6.8278 -2.6363 -1.7252 0
M  V30 32 Pb -7.2630 -3.3296 -1.1250 0
M  V30 33 Pb -7.3649 -1.9389 -1.2585 0
M  V30 34 Pb -6.2424 -3.3389 -2.1367 0
M  V30 35 Pb -6.4100 -1.9294 -2.2979 0
M  V30 36 Pd 0.3806 -4.8388 -3.0040 0
M  V30 37 Pb 0.5838 -5.5820 -2.3662 0
M  V30 38 Pb -0.5753 -5.1287 -3.0859 0
M  V30 39 Pb 1.3144 -4.4794 -2.9141 0
M  V30 40 Pb 0.2134 -4.1071 -3.6575 0
M  V30 41 Pd 5.1183 5.9405 -1.3411 0
M  V30 42 Pb 5.8026 5.7692 -0.6088 0
M  V30 43 Pb 5.4383 5.1430 -1.8626 0
M  V30 44 Pb 4.3227 6.0795 -1.9249 0
M  V30 45 Pb 4.8624 6.7841 -0.8837 0
M  V30 46 Ag -3.2997 2.4034 -3.2969 0
M  V30 47 Fe -4.6946 0.5074 -2.9668 0
M  V30 48 Ag -6.1146 -1.3828 -2.7202 0
M  V30 49 Ag -2.3122 3.3496 -1.1187 0
M  V30 50 Fe -1.1864 2.7373 0.8866 0
M  V30 51 Ag 0.0191 2.1178 2.8428 0
M  V30 52 Ag -7.7293 -3.0592 3.5670 0
M  V30 53 Fe -7.9963 -1.8582 1.5554 0
M  V30 54 Ag -7.7178 -1.5158 -0.7610 0
M  V30 55 Ag 1.7412 0.2679 2.5245 0
M  V30 56 Fe 1.2698 -2.0350 2.1943 0
M  V30 57 Ag 0.7761 -4.3372 1.8940 0
M  V30 58 Ag 2.4853 0.4245 -5.2681 0
M  V30 59 Fe 1.2369 -1.5341 -4.8018 0
M  V30 60 Ag 0.1668 -3.5411 -4.1394 0
M  V30 61 Ag -6.0091 -6.0554 3.4052 0
M  V30 62 Fe -3.7576 -6.6862 3.0125 0
M  V30 63 Ag -1.4326 -6.9003 2.6021 0
M  V30 64 Ag -5.7810 -3.8667 -2.4112 0
M  V30 65 Fe -3.5571 -4.6144 -2.7999 0
M  V30 66 Ag -1.3060 -5.2940 -3.1553 0
M  V30 67 Ag -5.6076 -4.1959 4.6430 0
M  V30 68 Fe -3.2730 -4.4699 4.2962 0
M  V30 69 Ag -1.0413 -4.9148 3.6114 0
M  V30 70 Ag -0.8410 4.7923 -2.7781 0
M  V30 71 Fe 1.4087 5.5019 -2.5101 0
M  V30 72 Ag 3.6555 6.2173 -2.2333 0
M  V30 73 Ag 4.2818 -0.1163 -3.9353 0
M  V30 74 Fe 3.2325 -2.1726 -3.3554 0
M  V30 75 Ag 1.9886 -4.1429 -2.8686 0
M  V30 76 Ag 2.9350 2.6167 -5.5344 0
M  V30 77 Fe 0.7131 3.3818 -5.2195 0
M  V30 78 Ag -1.4692 3.8584 -4.4251 0
M  V30 79 Ag 4.8564 6.7466 4.0615 0
M  V30 80 Fe 4.6544 7.6131 1.8861 0
M  V30 81 Ag 4.7109 7.3650 -0.4513 0
M  V30 82 Ba 3.7670 4.8811 5.3132 0
M  V30 83 Ga 2.6500 3.9510 5.0530 0
M  V30 84 Ba 1.5902 2.9824 4.7077 0
M  V30 85 Ba 5.3613 3.3409 4.4180 0
M  V30 86 Ga 4.3245 2.3087 4.2494 0
M  V30 87 Ba 3.2127 1.3627 4.0545 0
M  V30 88 Ba 0.5141 -6.6349 0.9987 0
M  V30 89 Ga 0.6370 -6.3867 -0.4495 0
M  V30 90 Ba 0.7607 -6.1407 -1.8979 0
M  V30 91 Ba 6.3113 5.2096 2.9316 0
M  V30 92 Ga 6.2564 5.4312 1.4512 0
M  V30 93 Ba 6.2926 5.6466 -0.0308 0
M  V30 94 Ba 5.1673 2.3003 -4.0480 0
M  V30 95 Ga 5.3972 3.4547 -3.1505 0
M  V30 96 Ba 5.7520 4.5857 -2.2642 0
M  V30 97 Ba -7.8190 -4.8824 2.0955 0
M  V30 98 Ga -7.6975 -4.3347 0.7135 0
M  V30 99 Ba -7.6345 -3.8382 -0.6913 0
M  V30 END ATOM
M  V30 BEGIN BOND
M  V30 1 1 1 2
M  V30 2 1 1 3
M  V30 3 1 1 4
M  V30 4 1 1 5
M  V30 5 1 6 7
M  V30 6 1 6 8
M  V30 7 1 6 9
M  V30 8 1 6 10
M  V30 9 1 11 12
M  V30 10 1 11 13
M  V30 11 1 11 14
M  V30 12 1 11 15
M  V30 13 1 16 17
M  V30 14 1 16 18
M  V30 15 1 16 19
M  V30 16 1 16 20
M  V30 17 1 21 22
M  V30 18 1 21 23
M  V30 19 1 21 24
M  V30 20 1 21 25
M  V30 21 1 26 27
M  V30 22 1 26 28
M  V30 23 1 26 29
M  V30 24 1 26 30
M  V30 25 1 31 32
M  V30 26 1 31 33
M  V30 27 1 31 34
M  V30 28 1 31 35
M  V30 29 1 36 37
M  V30 30 1 36 38
M  V30 31 1 36 39
M  V30 32 1 36 40
M  V30 33 1 41 42
M  V30 34 1 41 43
M  V30 35 1 41 44
M  V30 36 1 41 45
M  V30 37 1 46 47
M  V30 38 1 47 48
M  V30 39 1 49 50
M  V30 40 1 50 51
M  V30 41 1 52 53
M  V30 42 1 53 54
M  V30 43 1 55 56
M  V30 44 1 56 57
M  V30 45 1 58 59
M  V30 46 1 59 60
M  V30 47 1 61 62
M  V30 48 1 62 63
M  V30 49 1 64 65
M  V30 50 1 65 66
M  V30 51 1 67 68
M  V30 52 1 68 69
M  V30 53 1 70 71
M  V30 54 1 71 72
M  V30 55 1 73 74
M  V30 56 1 74 75
M  V30 57 1 76 77
M  V30 58 1 77 78
M  V30 59 1 79 80
M  V30 60 1 80 81
M  V30 61 1 82 83
M  V30 62 1 83 84
M  V30 63 1 85 86
M  V30 64 1 86 87
M  V30 65 1 88 89
M  V30 66 1 89 90
M  V30 67 1 91 92
M  V30 68 1 92 93
M  V30 69 1 94 95
M  V30 70 1 95 96
M  V30 71 1 97 98
M  V30 72 1 98 99
M  V30 73 1 2 76
M  V30 74 1 3 94
M  V30 75 1 4 58
M  V30 76 1 5 73
M  V30 77 1 7 49
M  V30 78 1 8 46
M  V30 79 1 9 78
M  V30 80 1 10 70
M  V30 81 1 12 79
M  V30 82 1 13 85
M  V30 83 1 14 91
M  V30 84 1 15 82
M  V30 85 1 17 84
M  V30 86 1 18 51
M  V30 87 1 19 55
M  V30 88 1 20 87
M  V30 89 1 22 97
M  V30 90 1 23 61
M  V30 91 1 24 52
M  V30 92 1 25 67
M  V30 93 1 27 69
M  V30 94 1 28 57
M  V30 95 1 29 88
M  V30 96 1 30 63
M  V30 97 1 32 99
M  V30 98 1 33 54
M  V30 99 1 34 64
M  V30 100 1 35 48
M  V30 101 1 37 90
M  V30 102 1 38 66
M  V30 103 1 39 75
M  V30 104 1 40 60
M  V30 105 1 42 93
M  V30 106 1 43 96
M  V30 107 1 44 72
M  V30 108 1 45 81
M  V30 END BOND
M  V30 END CTAB
M  END

$$$$
