
     RDKit          3D

  0  0  0  0  0  0  0  0  0  0999 V3000
M  V30 BEGIN CTAB
M  V30 COUNTS 99 108 0 0 0
M  V30 BEGIN ATOM
M  V30 1 Pd 6.9444 -0.8688 -1.5727 0
M  V30 2 Pb 6.9488 -1.5292 -0.8284 0
M  V30 3 Pb 6.2944 -0.3039 -1.0648 0
M  V30 4 Pb 6.7458 -0.3857 -2.4369 0
M  V30 5 Pb 7.6055 -1.4463 -2.0448 0
M  V30 6 Pd 1.4930 -0.9500 3.8109 0
M  V30 7 Pb 2.0789 -0.3926 3.2222 0
M  V30 8 Pb 2.0944 -1.7423 3.7053 0
M  V30 9 Pb 0.8699 -0.1769 3.9353 0
M  V30 10 Pb 0.8859 -1.5331 4.3474 0
M  V30 11 Pd 0.4904 6.6068 -0.7630 0
M  V30 12 Pb 1.4801 6.5443 -0.6325 0
M  V30 13 Pb 0.4395 5.6099 -0.7162 0
M  V30 14 Pb -0.4752 6.6727 -0.4652 0
M  V30 15 Pb 0.5537 7.6040 -0.7700 0
M  V30 16 Pd 3.0281 -4.6024 -0.0926 0
M  V30 17 Pb 2.1311 -5.0387 0.0202 0
M  V30 18 Pb 2.9034 -4.7320 -1.0866 0
M  V30 19 Pb 3.9737 -4.2549 -0.1142 0
M  V30 20 Pb 3.1185 -4.4805 0.8956 0
M  V30 21 Pd 3.5196 -2.4488 -5.1846 0
M  V30 22 Pb 4.1413 -1.6526 -5.2389 0
M  V30 23 Pb 2.7382 -1.8259 -5.1271 0
M  V30 24 Pb 2.9897 -3.2427 -4.8913 0
M  V30 25 Pb 4.2846 -3.0590 -5.3697 0
M  V30 26 Pd -2.4975 2.1512 -2.6448 0
M  V30 27 Pb -1.8576 1.7852 -3.3196 0
M  V30 28 Pb -1.7275 2.4135 -2.0635 0
M  V30 29 Pb -3.1687 2.4719 -1.9744 0
M  V30 30 Pb -3.2761 1.8359 -3.1857 0
M  V30 31 Pd -0.5532 6.6965 4.1170 0
M  V30 32 Pb 0.3996 6.6031 4.4062 0
M  V30 33 Pb -0.6959 5.7085 4.1872 0
M  V30 34 Pb -1.3110 6.7571 3.4480 0
M  V30 35 Pb -0.4284 7.6855 4.0505 0
M  V30 36 Pd -4.2620 -5.5081 2.6823 0
M  V30 37 Pb -3.6487 -5.2436 3.4241 0
M  V30 38 Pb -5.0193 -5.0262 3.1206 0
M  V30 39 Pb -3.4900 -5.9014 2.1796 0
M  V30 40 Pb -4.8913 -5.6896 1.9255 0
M  V30 41 Pd -8.3798 -0.9348 -0.4295 0
M  V30 42 Pb -8.1250 0.0028 -0.1957 0
M  V30 43 Pb -8.1673 -0.7048 -1.3773 0
M  V30 44 Pb -8.4619 -1.1908 0.5322 0
M  V30 45 Pb -8.4304 -1.9098 -0.6416 0
M  V30 46 Ag 1.4902 -5.4263 0.1064 0
M  V30 47 Fe -0.7052 -5.7660 0.9558 0
M  V30 48 Ag -2.9029 -6.1491 1.7805 0
M  V30 49 Ag -3.7405 2.6452 -1.5187 0
M  V30 50 Fe -5.8065 1.8112 -0.6935 0
M  V30 51 Ag -7.7932 0.6642 -0.0757 0
M  V30 52 Ag 0.3837 0.3851 4.0418 0
M  V30 53 Fe -0.1792 2.6916 4.1289 0
M  V30 54 Ag -0.8345 4.9725 4.2395 0
M  V30 55 Ag 0.4268 -2.0096 4.6962 0
M  V30 56 Fe -1.3798 -3.5233 4.4241 0
M  V30 57 Ag -3.1868 -4.9871 3.9538 0
M  V30 58 Ag 0.5679 8.3184 -0.5686 0
M  V30 59 Fe 0.1878 9.0613 1.6296 0
M  V30 60 Ag -0.3148 8.3844 3.8250 0
M  V30 61 Ag -3.9025 1.5760 -3.5033 0
M  V30 62 Fe -5.9643 0.5343 -2.9611 0
M  V30 63 Ag -7.8956 -0.4922 -2.0410 0
M  V30 64 Ag 5.8190 0.0949 -0.6439 0
M  V30 65 Fe 4.1559 0.0905 1.0518 0
M  V30 66 Ag 2.4989 0.0139 2.7516 0
M  V30 67 Ag 2.1075 6.4968 -0.2252 0
M  V30 68 Fe 2.1515 6.4764 2.1480 0
M  V30 69 Ag 1.1380 6.5410 4.2934 0
M  V30 70 Ag 2.1787 -1.3274 -5.1816 0
M  V30 71 Fe 0.4034 0.0589 -4.4275 0
M  V30 72 Ag -1.3915 1.4958 -3.8302 0
M  V30 73 Ag -5.4116 -5.7229 1.3852 0
M  V30 74 Fe -6.9526 -4.3450 0.2156 0
M  V30 75 Ag -8.3308 -2.6488 -0.7137 0
M  V30 76 Ag -5.6009 -4.6100 3.3420 0
M  V30 77 Fe -7.1228 -3.0094 2.4750 0
M  V30 78 Ag -8.4222 -1.4654 1.2271 0
M  V30 79 Ag 7.9451 -1.9432 -2.4756 0
M  V30 80 Fe 6.9147 -3.1211 -4.2253 0
M  V30 81 Ag 4.9272 -3.4216 -5.4394 0
M  V30 82 Ba 6.5439 -0.1099 -3.1177 0
M  V30 83 Ga 5.5861 -0.5742 -4.1648 0
M  V30 84 Ba 4.6213 -1.0611 -5.1953 0
M  V30 85 Ba 0.4269 4.8634 -0.6527 0
M  V30 86 Ga -0.3798 3.7378 -1.1588 0
M  V30 87 Ba -1.1393 2.5627 -1.6233 0
M  V30 88 Ba 2.5109 -2.3652 3.6639 0
M  V30 89 Ga 2.8632 -3.3591 2.6321 0
M  V30 90 Ba 3.2373 -4.3735 1.6283 0
M  V30 91 Ba 2.6914 -4.8887 -1.8003 0
M  V30 92 Ga 2.6974 -4.3492 -3.1820 0
M  V30 93 Ba 2.6838 -3.8533 -4.5802 0
M  V30 94 Ba 6.8780 -2.1072 -0.3606 0
M  V30 95 Ga 5.7592 -3.0591 -0.1723 0
M  V30 96 Ba 4.6857 -4.0526 0.0566 0
M  V30 97 Ba -1.1462 6.7235 -0.0975 0
M  V30 98 Ga -1.4913 6.7588 1.3626 0
M  V30 99 Ba -1.7725 6.7894 2.8365 0
M  V30 END ATOM
M  V30 BEGIN BOND
M  V30 1 1 1 2
M  V30 2 1 1 3
M  V30 3 1 1 4
M  V30 4 1 1 5
M  V30 5 1 6 7
M  V30 6 1 6 8
M  V30 7 1 6 9
M  V30 8 1 6 10
M  V30 9 1 11 12
M  V30 10 1 11 13
M  V30 11 1 11 14
M  V30 12 1 11 15
M  V30 13 1 16 17
M  V30 14 1 16 18
M  V30 15 1 16 19
M  V30 16 1 16 20
M  V30 17 1 21 22
M  V30 18 1 21 23
M  V30 19 1 21 24
M  V30 20 1 21 25
M  V30 21 1 26 27
M  V30 22 1 26 28
M  V30 23 1 26 29
M  V30 24 1 26 30
M  V30 25 1 31 32
M  V30 26 1 31 33
M  V30 27 1 31 34
M  V30 28 1 31 35
M  V30 29 1 36 37
M  V30 30 1 36 38
M  V30 31 1 36 39
M  V30 32 1 36 40
M  V30 33 1 41 42
M  V30 34 1 41 43
M  V30 35 1 41 44
M  V30 36 1 41 45
M  V30 37 1 46 47
M  V30 38 1 47 48
M  V30 39 1 49 50
M  V30 40 1 50 51
M  V30 41 1 52 53
M  V30 42 1 53 54
M  V30 43 1 55 56
M  V30 44 1 56 57
M  V30 45 1 58 59
M  V30 46 1 59 60
M  V30 47 1 61 62
M  V30 48 1 62 63
M  V30 49 1 64 65
M  V30 50 1 65 66
M  V30 51 1 67 68
M  V30 52 1 68 69
M  V30 53 1 70 71
M  V30 54 1 71 72
M  V30 55 1 73 74
M  V30 56 1 74 75
M  V30 57 1 76 77
M  V30 58 1 77 78
M  V30 59 1 79 80
M  V30 60 1 80 81
M  V30 61 1 82 83
M  V30 62 1 83 84
M  V30 63 1 85 86
M  V30 64 1 86 87
M  V30 65 1 88 89
M  V30 66 1 89 90
M  V30 67 1 91 92
M  V30 68 1 92 93
M  V30 69 1 94 95
M  V30 70 1 95 96
M  V30 71 1 97 98
M  V30 72 1 98 99
M  V30 73 1 2 94
M  V30 74 1 3 64
M  V30 75 1 4 82
M  V30 76 1 5 79
M  V30 77 1 7 66
M  V30 78 1 8 88
M  V30 79 1 9 52
M  V30 80 1 10 55
M  V30 81 1 12 67
M  V30 82 1 13 85
M  V30 83 1 14 97
M  V30 84 1 15 58
M  V30 85 1 17 46
M  V30 86 1 18 91
M  V30 87 1 19 96
M  V30 88 1 20 90
M  V30 89 1 22 84
M  V30 90 1 23 70
M  V30 91 1 24 93
M  V30 92 1 25 81
M  V30 93 1 27 72
M  V30 94 1 28 87
M  V30 95 1 29 49
M  V30 96 1 30 61
M  V30 97 1 32 69
M  V30 98 1 33 54
M  V30 99 1 34 99
M  V30 100 1 35 60
M  V30 101 1 37 57
M  V30 102 1 38 76
M  V30 103 1 39 48
M  V30 104 1 40 73
M  V30 105 1 42 51
M  V30 106 1 43 63
M  V30 107 1 44 78
M  V30 108 1 45 75
M  V30 END BOND
M  V30 END CTAB
M  END

$$$$
