
     RDKit          3D

  0  0  0  0  0  0  0  0  0  0999 V3000
M  V30 BEGIN CTAB
M  V30 COUNTS 99 108 0 0 0
M  V30 BEGIN ATOM
M  V30 1 Pd 3.6955 0.6722 2.5081 0
M  V30 2 Pb 3.7518 -0.1320 3.0954 0
M  V30 3 Pb 3.6796 0.0599 1.7163 0
M  V30 4 Pb 3.6379 1.2646 3.3116 0
M  V30 5 Pb 3.5123 1.4493 1.9103 0
M  V30 6 Pd 4.1148 -2.4414 -6.5989 0
M  V30 7 Pb 3.1427 -2.6466 -6.5005 0
M  V30 8 Pb 5.0851 -2.2099 -6.6389 0
M  V30 9 Pb 3.8894 -1.6064 -7.1002 0
M  V30 10 Pb 4.3488 -3.2082 -6.0006 0
M  V30 11 Pd -4.7041 -3.0278 0.9449 0
M  V30 12 Pb -3.9077 -3.6284 1.0435 0
M  V30 13 Pb -4.5685 -2.9426 -0.0458 0
M  V30 14 Pb -5.4914 -2.4174 0.8799 0
M  V30 15 Pb -4.8722 -3.1250 1.9261 0
M  V30 16 Pd -6.1198 4.0192 1.9901 0
M  V30 17 Pb -6.7222 3.2621 1.7509 0
M  V30 18 Pb -5.4339 4.6939 2.2660 0
M  V30 19 Pb -5.8488 4.0590 1.0293 0
M  V30 20 Pb -6.3165 3.9019 2.9616 0
M  V30 21 Pd -2.5617 0.0509 -3.6884 0
M  V30 22 Pb -2.0344 -0.6542 -4.1618 0
M  V30 23 Pb -3.1033 -0.6863 -3.2709 0
M  V30 24 Pb -3.1026 0.7799 -3.2629 0
M  V30 25 Pb -2.0485 0.7654 -4.1711 0
M  V30 26 Pd -1.4580 3.3823 7.1932 0
M  V30 27 Pb -1.5799 4.1786 6.5994 0
M  V30 28 Pb -1.3841 2.5095 7.6751 0
M  V30 29 Pb -0.4675 3.4025 7.0570 0
M  V30 30 Pb -2.4538 3.3437 7.2539 0
M  V30 31 Pd -1.5039 -3.6768 5.0690 0
M  V30 32 Pb -0.5050 -3.6661 5.0719 0
M  V30 33 Pb -1.4889 -3.1511 5.9208 0
M  V30 34 Pb -2.5013 -3.6443 5.0478 0
M  V30 35 Pb -1.5183 -4.1438 4.1816 0
M  V30 36 Pd 2.6343 2.3350 -4.6971 0
M  V30 37 Pb 1.6638 2.4054 -4.9372 0
M  V30 38 Pb 3.5953 2.3010 -4.4150 0
M  V30 39 Pb 2.8254 1.9459 -5.6024 0
M  V30 40 Pb 2.4706 2.7331 -3.7978 0
M  V30 41 Pd 6.0222 -1.2778 -2.6065 0
M  V30 42 Pb 6.6464 -1.2824 -3.3853 0
M  V30 43 Pb 5.3348 -1.2958 -1.8782 0
M  V30 44 Pb 6.0700 -0.2810 -2.6181 0
M  V30 45 Pb 5.9072 -2.2637 -2.7239 0
M  V30 46 Ag 2.4132 -2.7745 -6.3927 0
M  V30 47 Fe 0.3672 -1.9993 -5.4718 0
M  V30 48 Ag -1.6550 -1.1829 -4.5340 0
M  V30 49 Ag 3.6891 -0.7546 3.5039 0
M  V30 50 Fe 2.0647 -2.2614 4.3519 0
M  V30 51 Ag 0.2406 -3.5965 5.0724 0
M  V30 52 Ag -5.6403 4.0105 0.3109 0
M  V30 53 Fe -4.5567 2.6892 -1.3407 0
M  V30 54 Ag -3.4790 1.3786 -3.0048 0
M  V30 55 Ag -4.8921 5.1200 2.5644 0
M  V30 56 Fe -3.2598 5.0845 4.2911 0
M  V30 57 Ag -1.7586 4.7041 6.0935 0
M  V30 58 Ag -6.3504 3.8018 3.7020 0
M  V30 59 Fe -4.9235 3.5515 5.5804 0
M  V30 60 Ag -3.1996 3.3408 7.1962 0
M  V30 61 Ag -6.0600 -1.9315 0.8586 0
M  V30 62 Fe -6.7097 0.3269 1.1781 0
M  V30 63 Ag -7.0835 2.6371 1.5614 0
M  V30 64 Ag 3.5402 1.6931 3.9192 0
M  V30 65 Fe 1.9666 2.5848 5.4582 0
M  V30 66 Ag 0.2671 3.3935 6.9066 0
M  V30 67 Ag 3.3026 1.9919 1.4408 0
M  V30 68 Fe 2.8446 2.5871 -0.8090 0
M  V30 69 Ag 2.4372 3.0139 -3.1062 0
M  V30 70 Ag -1.3582 1.8136 7.9536 0
M  V30 71 Fe -1.3990 -0.4831 7.3478 0
M  V30 72 Ag -1.4547 -2.7129 6.5300 0
M  V30 73 Ba -1.7119 1.3114 -4.5662 0
M  V30 74 Ga -0.3632 1.8646 -4.8128 0
M  V30 75 Ba 0.9403 2.4886 -5.1251 0
M  V30 76 Ba -5.0014 -3.2093 2.6602 0
M  V30 77 Ga -4.1429 -3.4075 3.8415 0
M  V30 78 Ba -3.2464 -3.6037 4.9946 0
M  V30 79 Ba 4.5560 -3.7142 -5.4868 0
M  V30 80 Ga 5.1731 -3.4486 -4.1738 0
M  V30 81 Ba 5.7777 -2.9770 -2.9141 0
M  V30 82 Ba 5.8085 -2.0294 -6.5813 0
M  V30 83 Ga 6.5236 -1.6530 -5.3527 0
M  V30 84 Ba 7.0397 -1.3046 -4.0206 0
M  V30 85 Ba -3.3146 -4.0762 1.1623 0
M  V30 86 Ga -2.4197 -4.2840 2.3214 0
M  V30 87 Ba -1.5453 -4.4641 3.5007 0
M  V30 88 Ba 3.7254 -0.9503 -7.4241 0
M  V30 89 Ga 3.3365 0.3614 -6.8657 0
M  V30 90 Ba 2.9490 1.6667 -6.2915 0
M  V30 91 Ba 4.2854 2.3299 -4.1155 0
M  V30 92 Ga 5.1985 1.3985 -3.4233 0
M  V30 93 Ba 6.1059 0.4576 -2.7364 0
M  V30 94 Ba 3.6053 -0.4295 1.1516 0
M  V30 95 Ga 4.2558 -0.8456 -0.1069 0
M  V30 96 Ba 4.7776 -1.3798 -1.3807 0
M  V30 97 Ba -4.5252 -2.9012 -0.7969 0
M  V30 98 Ga -3.9750 -2.0400 -1.8681 0
M  V30 99 Ba -3.4968 -1.2934 -3.0535 0
M  V30 END ATOM
M  V30 BEGIN BOND
M  V30 1 1 1 2
M  V30 2 1 1 3
M  V30 3 1 1 4
M  V30 4 1 1 5
M  V30 5 1 6 7
M  V30 6 1 6 8
M  V30 7 1 6 9
M  V30 8 1 6 10
M  V30 9 1 11 12
M  V30 10 1 11 13
M  V30 11 1 11 14
M  V30 12 1 11 15
M  V30 13 1 16 17
M  V30 14 1 16 18
M  V30 15 1 16 19
M  V30 16 1 16 20
M  V30 17 1 21 22
M  V30 18 1 21 23
M  V30 19 1 21 24
M  V30 20 1 21 25
M  V30 21 1 26 27
M  V30 22 1 26 28
M  V30 23 1 26 29
M  V30 24 1 26 30
M  V30 25 1 31 32
M  V30 26 1 31 33
M  V30 27 1 31 34
M  V30 28 1 31 35
M  V30 29 1 36 37
M  V30 30 1 36 38
M  V30 31 1 36 39
M  V30 32 1 36 40
M  V30 33 1 41 42
M  V30 34 1 41 43
M  V30 35 1 41 44
M  V30 36 1 41 45
M  V30 37 1 46 47
M  V30 38 1 47 48
M  V30 39 1 49 50
M  V30 40 1 50 51
M  V30 41 1 52 53
M  V30 42 1 53 54
M  V30 43 1 55 56
M  V30 44 1 56 57
M  V30 45 1 58 59
M  V30 46 1 59 60
M  V30 47 1 61 62
M  V30 48 1 62 63
M  V30 49 1 64 65
M  V30 50 1 65 66
M  V30 51 1 67 68
M  V30 52 1 68 69
M  V30 53 1 70 71
M  V30 54 1 71 72
M  V30 55 1 73 74
M  V30 56 1 74 75
M  V30 57 1 76 77
M  V30 58 1 77 78
M  V30 59 1 79 80
M  V30 60 1 80 81
M  V30 61 1 82 83
M  V30 62 1 83 84
M  V30 63 1 85 86
M  V30 64 1 86 87
M  V30 65 1 88 89
M  V30 66 1 89 90
M  V30 67 1 91 92
M  V30 68 1 92 93
M  V30 69 1 94 95
M  V30 70 1 95 96
M  V30 71 1 97 98
M  V30 72 1 98 99
M  V30 73 1 2 49
M  V30 74 1 3 94
M  V30 75 1 4 64
M  V30 76 1 5 67
M  V30 77 1 7 46
M  V30 78 1 8 82
M  V30 79 1 9 88
M  V30 80 1 10 79
M  V30 81 1 12 85
M  V30 82 1 13 97
M  V30 83 1 14 61
M  V30 84 1 15 76
M  V30 85 1 17 63
M  V30 86 1 18 55
M  V30 87 1 19 52
M  V30 88 1 20 58
M  V30 89 1 22 48
M  V30 90 1 23 99
M  V30 91 1 24 54
M  V30 92 1 25 73
M  V30 93 1 27 57
M  V30 94 1 28 70
M  V30 95 1 29 66
M  V30 96 1 30 60
M  V30 97 1 32 51
M  V30 98 1 33 72
M  V30 99 1 34 78
M  V30 100 1 35 87
M  V30 101 1 37 75
M  V30 102 1 38 91
M  V30 103 1 39 90
M  V30 104 1 40 69
M  V30 105 1 42 84
M  V30 106 1 43 96
M  V30 107 1 44 93
M  V30 108 1 45 81
M  V30 END BOND
M  V30 END CTAB
M  END

$$$$
