
     RDKit          3D

  0  0  0  0  0  0  0  0  0  0999 V3000
M  V30 BEGIN CTAB
M  V30 COUNTS 99 108 0 0 0
M  V30 BEGIN ATOM
M  V30 1 Pd -3.1055 -3.1923 2.3161 0
M  V30 2 Pb -2.2037 -3.5977 2.4804 0
M  V30 3 Pb -3.4928 -4.1059 2.1772 0
M  V30 4 Pb -4.0012 -2.8077 2.0929 0
M  V30 5 Pb -2.7536 -2.2744 2.5175 0
M  V30 6 Pd -6.1452 -4.8947 -1.3489 0
M  V30 7 Pb -5.9111 -5.6547 -1.9564 0
M  V30 8 Pb -6.3337 -4.1218 -0.7420 0
M  V30 9 Pb -5.9357 -5.4477 -0.5460 0
M  V30 10 Pb -6.2075 -4.3072 -2.1525 0
M  V30 11 Pd 3.5610 0.9601 -3.7918 0
M  V30 12 Pb 4.2632 0.4296 -3.3252 0
M  V30 13 Pb 2.7909 1.5049 -4.1163 0
M  V30 14 Pb 4.0746 1.8053 -3.6365 0
M  V30 15 Pb 3.0145 0.1256 -3.8888 0
M  V30 16 Pd 4.6622 6.7105 1.1407 0
M  V30 17 Pb 4.4314 7.0511 2.0467 0
M  V30 18 Pb 5.3446 6.1155 1.5657 0
M  V30 19 Pb 3.8809 7.2284 0.7782 0
M  V30 20 Pb 4.8823 6.3372 0.2375 0
M  V30 21 Pd 1.2318 -3.3334 -0.6664 0
M  V30 22 Pb 1.1382 -2.4764 -0.1638 0
M  V30 23 Pb 1.2538 -4.2085 -1.1486 0
M  V30 24 Pb 1.3648 -2.8822 -1.5560 0
M  V30 25 Pb 1.0494 -3.7874 0.2070 0
M  V30 26 Pd -2.2192 -4.7256 -3.9645 0
M  V30 27 Pb -2.7899 -5.5331 -4.0994 0
M  V30 28 Pb -1.6889 -3.9200 -3.7049 0
M  V30 29 Pb -3.0152 -4.1610 -4.1887 0
M  V30 30 Pb -1.4332 -5.2890 -3.7114 0
M  V30 31 Pd 3.8116 0.1854 3.1312 0
M  V30 32 Pb 2.9688 -0.1497 2.7103 0
M  V30 33 Pb 3.2389 0.6593 3.8005 0
M  V30 34 Pb 4.3591 -0.2395 2.4132 0
M  V30 35 Pb 4.6186 0.7008 3.4127 0
M  V30 36 Pd -1.8790 1.9432 0.0738 0
M  V30 37 Pb -2.2303 2.7749 0.5067 0
M  V30 38 Pb -1.7629 2.4167 -0.7967 0
M  V30 39 Pb -1.9338 1.4452 0.9420 0
M  V30 40 Pb -1.4882 1.1491 -0.3923 0
M  V30 41 Pd 0.1069 6.2968 3.0241 0
M  V30 42 Pb 0.2854 6.9325 2.2685 0
M  V30 43 Pb 0.9043 6.6742 3.4884 0
M  V30 44 Pb 0.0710 5.5793 3.7172 0
M  V30 45 Pb -0.7292 5.9479 2.5934 0
M  V30 46 Ag 4.4265 2.4532 -3.4926 0
M  V30 47 Fe 4.7637 4.2589 -1.9844 0
M  V30 48 Ag 5.0519 6.0322 -0.4283 0
M  V30 49 Ag 2.7613 1.0398 4.2364 0
M  V30 50 Fe 1.4027 2.9830 4.3587 0
M  V30 51 Ag 0.1659 5.0019 4.1837 0
M  V30 52 Ag 4.7047 0.0476 -2.8615 0
M  V30 53 Fe 4.8950 -0.3533 -0.5334 0
M  V30 54 Ag 4.7477 -0.4952 1.8281 0
M  V30 55 Ag -1.2940 -3.3440 -3.4337 0
M  V30 56 Fe -1.2426 -1.3649 -2.1217 0
M  V30 57 Ag -1.1685 0.6141 -0.8107 0
M  V30 58 Ag 5.7632 5.6150 1.9359 0
M  V30 59 Fe 5.6738 3.4081 2.8061 0
M  V30 60 Ag 5.1785 1.1905 3.4926 0
M  V30 61 Ag 2.1721 1.9096 -4.2224 0
M  V30 62 Fe 0.1970 2.4500 -3.0280 0
M  V30 63 Ag -1.5756 2.6792 -1.4707 0
M  V30 64 Ba -2.4875 3.4125 0.8092 0
M  V30 65 Ga -1.9081 4.5474 1.5580 0
M  V30 66 Ba -1.3837 5.7079 2.3081 0
M  V30 67 Ba -6.1360 -3.8850 -2.7652 0
M  V30 68 Ga -4.9287 -3.7697 -3.6025 0
M  V30 69 Ba -3.6441 -3.7736 -4.3256 0
M  V30 70 Ba -3.8216 -4.7771 2.0935 0
M  V30 71 Ga -4.7608 -5.3351 1.1025 0
M  V30 72 Ba -5.6938 -5.8077 0.0628 0
M  V30 73 Ba 3.2491 7.5865 0.5694 0
M  V30 74 Ga 1.8656 7.5153 1.0989 0
M  V30 75 Ba 0.5176 7.3708 1.7002 0
M  V30 76 Ba -4.6757 -2.5567 1.8821 0
M  V30 77 Ga -5.5889 -3.0198 0.8198 0
M  V30 78 Ba -6.4363 -3.5519 -0.2645 0
M  V30 79 Ba 1.2197 -4.8486 -1.5367 0
M  V30 80 Ga 0.2252 -5.3122 -2.5210 0
M  V30 81 Ba -0.8279 -5.6707 -3.4881 0
M  V30 82 Ba -2.5149 -1.5897 2.7217 0
M  V30 83 Ga -2.2382 -0.2687 2.1176 0
M  V30 84 Ba -1.9374 1.0842 1.6021 0
M  V30 85 Ba -5.6920 -6.1867 -2.4385 0
M  V30 86 Ga -4.5062 -6.2249 -3.3129 0
M  V30 87 Ba -3.2768 -6.1005 -4.1159 0
M  V30 88 Ba 1.0018 -1.8886 0.2792 0
M  V30 89 Ga 1.7082 -1.1070 1.3115 0
M  V30 90 Ba 2.3151 -0.2657 2.3597 0
M  V30 91 Ba 2.5924 -0.4934 -3.9565 0
M  V30 92 Ga 2.0337 -1.5319 -3.0612 0
M  V30 93 Ba 1.4257 -2.6201 -2.2627 0
M  V30 94 Ba -1.5314 -3.9230 2.5710 0
M  V30 95 Ga -0.3143 -4.0152 1.7380 0
M  V30 96 Ba 0.8847 -4.0843 0.8771 0
M  V30 97 Ba 4.2088 7.2734 2.7216 0
M  V30 98 Ga 2.8787 7.1519 3.3303 0
M  V30 99 Ba 1.5063 6.9686 3.8180 0
M  V30 END ATOM
M  V30 BEGIN BOND
M  V30 1 1 1 2
M  V30 2 1 1 3
M  V30 3 1 1 4
M  V30 4 1 1 5
M  V30 5 1 6 7
M  V30 6 1 6 8
M  V30 7 1 6 9
M  V30 8 1 6 10
M  V30 9 1 11 12
M  V30 10 1 11 13
M  V30 11 1 11 14
M  V30 12 1 11 15
M  V30 13 1 16 17
M  V30 14 1 16 18
M  V30 15 1 16 19
M  V30 16 1 16 20
M  V30 17 1 21 22
M  V30 18 1 21 23
M  V30 19 1 21 24
M  V30 20 1 21 25
M  V30 21 1 26 27
M  V30 22 1 26 28
M  V30 23 1 26 29
M  V30 24 1 26 30
M  V30 25 1 31 32
M  V30 26 1 31 33
M  V30 27 1 31 34
M  V30 28 1 31 35
M  V30 29 1 36 37
M  V30 30 1 36 38
M  V30 31 1 36 39
M  V30 32 1 36 40
M  V30 33 1 41 42
M  V30 34 1 41 43
M  V30 35 1 41 44
M  V30 36 1 41 45
M  V30 37 1 46 47
M  V30 38 1 47 48
M  V30 39 1 49 50
M  V30 40 1 50 51
M  V30 41 1 52 53
M  V30 42 1 53 54
M  V30 43 1 55 56
M  V30 44 1 56 57
M  V30 45 1 58 59
M  V30 46 1 59 60
M  V30 47 1 61 62
M  V30 48 1 62 63
M  V30 49 1 64 65
M  V30 50 1 65 66
M  V30 51 1 67 68
M  V30 52 1 68 69
M  V30 53 1 70 71
M  V30 54 1 71 72
M  V30 55 1 73 74
M  V30 56 1 74 75
M  V30 57 1 76 77
M  V30 58 1 77 78
M  V30 59 1 79 80
M  V30 60 1 80 81
M  V30 61 1 82 83
M  V30 62 1 83 84
M  V30 63 1 85 86
M  V30 64 1 86 87
M  V30 65 1 88 89
M  V30 66 1 89 90
M  V30 67 1 91 92
M  V30 68 1 92 93
M  V30 69 1 94 95
M  V30 70 1 95 96
M  V30 71 1 97 98
M  V30 72 1 98 99
M  V30 73 1 2 94
M  V30 74 1 3 70
M  V30 75 1 4 76
M  V30 76 1 5 82
M  V30 77 1 7 85
M  V30 78 1 8 78
M  V30 79 1 9 72
M  V30 80 1 10 67
M  V30 81 1 12 52
M  V30 82 1 13 61
M  V30 83 1 14 46
M  V30 84 1 15 91
M  V30 85 1 17 97
M  V30 86 1 18 58
M  V30 87 1 19 73
M  V30 88 1 20 48
M  V30 89 1 22 88
M  V30 90 1 23 79
M  V30 91 1 24 93
M  V30 92 1 25 96
M  V30 93 1 27 87
M  V30 94 1 28 55
M  V30 95 1 29 69
M  V30 96 1 30 81
M  V30 97 1 32 90
M  V30 98 1 33 49
M  V30 99 1 34 54
M  V30 100 1 35 60
M  V30 101 1 37 64
M  V30 102 1 38 63
M  V30 103 1 39 84
M  V30 104 1 40 57
M  V30 105 1 42 75
M  V30 106 1 43 99
M  V30 107 1 44 51
M  V30 108 1 45 66
M  V30 END BOND
M  V30 END CTAB
M  END

$$$$
