
     RDKit          3D

  0  0  0  0  0  0  0  0  0  0999 V3000
M  V30 BEGIN CTAB
M  V30 COUNTS 99 108 0 0 0
M  V30 BEGIN ATOM
M  V30 1 Pd -2.9274 1.8252 3.0356 0
M  V30 2 Pb -2.6084 2.5808 3.6104 0
M  V30 3 Pb -3.2643 1.0871 2.4500 0
M  V30 4 Pb -3.7161 2.3605 2.7310 0
M  V30 5 Pb -2.1434 1.2855 3.3509 0
M  V30 6 Pd 0.1359 -9.0465 -1.4499 0
M  V30 7 Pb 0.8602 -8.5895 -1.9680 0
M  V30 8 Pb -0.5716 -8.7211 -2.0799 0
M  V30 9 Pb 0.7517 -9.2139 -0.6824 0
M  V30 10 Pb -0.6001 -9.4484 -0.9128 0
M  V30 11 Pd 4.0308 4.8225 -0.9436 0
M  V30 12 Pb 3.4486 5.6376 -0.9266 0
M  V30 13 Pb 4.5986 4.0002 -0.9499 0
M  V30 14 Pb 4.2373 4.9532 -1.9157 0
M  V30 15 Pb 3.8306 4.6739 0.0246 0
M  V30 16 Pd 1.4373 3.3792 -5.1298 0
M  V30 17 Pb 2.3466 3.7908 -5.1520 0
M  V30 18 Pb 1.0532 4.2708 -4.9081 0
M  V30 19 Pb 1.8226 2.4796 -5.3393 0
M  V30 20 Pb 0.5169 3.0052 -4.9925 0
M  V30 21 Pd 4.7569 -2.8231 -2.2716 0
M  V30 22 Pb 4.4144 -3.7186 -2.5629 0
M  V30 23 Pb 5.1254 -1.9378 -1.9889 0
M  V30 24 Pb 4.4831 -2.4217 -3.1452 0
M  V30 25 Pb 4.9689 -3.1792 -1.3625 0
M  V30 26 Pd -3.8848 5.5520 -0.7878 0
M  V30 27 Pb -3.2737 6.0427 -1.4018 0
M  V30 28 Pb -3.8410 6.3113 -0.1423 0
M  V30 29 Pb -4.4676 5.0486 -0.1507 0
M  V30 30 Pb -3.8273 4.7814 -1.4276 0
M  V30 31 Pd 0.0501 6.3508 2.3133 0
M  V30 32 Pb -0.3921 5.9073 3.0942 0
M  V30 33 Pb -0.7711 6.9074 2.1816 0
M  V30 34 Pb 0.8691 5.7950 2.4511 0
M  V30 35 Pb 0.4870 6.7761 1.5177 0
M  V30 36 Pd 1.3505 -4.6694 4.1430 0
M  V30 37 Pb 2.2671 -4.5187 3.7754 0
M  V30 38 Pb 0.4072 -4.8102 4.4482 0
M  V30 39 Pb 1.4838 -5.6377 3.9246 0
M  V30 40 Pb 1.2239 -3.6879 4.2929 0
M  V30 41 Pd -5.0447 -5.4803 0.9989 0
M  V30 42 Pb -4.9905 -5.6885 0.0200 0
M  V30 43 Pb -5.0322 -4.4973 0.8206 0
M  V30 44 Pb -4.8841 -5.3194 1.9708 0
M  V30 45 Pb -4.9725 -6.4598 1.1604 0
M  V30 46 Ag 1.3980 -8.2249 -2.3447 0
M  V30 47 Fe 2.7849 -6.3075 -2.5655 0
M  V30 48 Ag 4.1752 -4.3933 -2.7934 0
M  V30 49 Ag 5.0848 -3.3972 -0.6552 0
M  V30 50 Fe 4.0836 -3.9335 1.4294 0
M  V30 51 Ag 2.9342 -4.4430 3.4431 0
M  V30 52 Ag 2.1289 1.8098 -5.4854 0
M  V30 53 Fe 3.1907 -0.1559 -4.6784 0
M  V30 54 Ag 4.2444 -2.0805 -3.7687 0
M  V30 55 Ag 0.7189 4.9054 -4.7054 0
M  V30 56 Fe -1.0040 5.7798 -3.3353 0
M  V30 57 Ag -2.7812 6.3422 -1.8739 0
M  V30 58 Ag -1.1916 -9.6472 -0.5063 0
M  V30 59 Fe -3.1028 -8.6430 0.4633 0
M  V30 60 Ag -4.8094 -7.1841 1.2115 0
M  V30 61 Ag -1.1750 -8.4115 -2.4061 0
M  V30 62 Fe -3.0817 -7.1477 -1.7530 0
M  V30 63 Ag -4.8092 -5.9188 -0.6736 0
M  V30 64 Ag -0.1866 2.8074 -4.8093 0
M  V30 65 Fe -2.0179 3.4170 -3.4174 0
M  V30 66 Ag -3.6853 4.2404 -1.9328 0
M  V30 67 Ag 1.1113 -9.2369 -0.0260 0
M  V30 68 Fe 1.4568 -7.8877 1.8984 0
M  V30 69 Ag 1.6395 -6.3335 3.6859 0
M  V30 70 Ag -1.5441 0.9181 3.6200 0
M  V30 71 Fe -0.2325 -1.0301 3.9875 0
M  V30 72 Ag 1.1133 -2.9500 4.3797 0
M  V30 73 Ag -0.3205 -4.8626 4.6281 0
M  V30 74 Fe -2.5350 -5.0472 3.7893 0
M  V30 75 Ag -4.6184 -5.2442 2.6664 0
M  V30 76 Ag -3.5720 0.5826 1.9869 0
M  V30 77 Fe -4.2636 -1.6030 1.3655 0
M  V30 78 Ag -4.9782 -3.7628 0.6830 0
M  V30 79 Ag 5.0175 3.3792 -0.9563 0
M  V30 80 Fe 5.2131 1.0488 -1.3670 0
M  V30 81 Ag 5.4177 -1.2813 -1.7751 0
M  V30 82 Ba -2.3627 3.1402 4.0482 0
M  V30 83 Ga -1.5479 4.3566 3.8550 0
M  V30 84 Ba -0.7344 5.5758 3.6748 0
M  V30 85 Ba 3.6771 4.5591 0.7494 0
M  V30 86 Ga 2.5865 4.9670 1.6538 0
M  V30 87 Ba 1.4883 5.3837 2.5449 0
M  V30 88 Ba 3.0037 6.2428 -0.8913 0
M  V30 89 Ga 1.9113 6.6678 0.0090 0
M  V30 90 Ba 0.8202 7.0815 0.9162 0
M  V30 91 Ba 4.4035 5.0171 -2.6466 0
M  V30 92 Ga 3.7360 4.5884 -3.8912 0
M  V30 93 Ba 3.0100 4.1325 -5.0924 0
M  V30 94 Ba -4.3228 2.7292 2.4866 0
M  V30 95 Ga -4.6054 3.7100 1.4214 0
M  V30 96 Ba -4.8881 4.6913 0.3566 0
M  V30 97 Ba -3.7352 6.8655 0.3481 0
M  V30 98 Ga -2.5885 7.1259 1.2360 0
M  V30 99 Ba -1.4000 7.3065 2.0886 0
M  V30 END ATOM
M  V30 BEGIN BOND
M  V30 1 1 1 2
M  V30 2 1 1 3
M  V30 3 1 1 4
M  V30 4 1 1 5
M  V30 5 1 6 7
M  V30 6 1 6 8
M  V30 7 1 6 9
M  V30 8 1 6 10
M  V30 9 1 11 12
M  V30 10 1 11 13
M  V30 11 1 11 14
M  V30 12 1 11 15
M  V30 13 1 16 17
M  V30 14 1 16 18
M  V30 15 1 16 19
M  V30 16 1 16 20
M  V30 17 1 21 22
M  V30 18 1 21 23
M  V30 19 1 21 24
M  V30 20 1 21 25
M  V30 21 1 26 27
M  V30 22 1 26 28
M  V30 23 1 26 29
M  V30 24 1 26 30
M  V30 25 1 31 32
M  V30 26 1 31 33
M  V30 27 1 31 34
M  V30 28 1 31 35
M  V30 29 1 36 37
M  V30 30 1 36 38
M  V30 31 1 36 39
M  V30 32 1 36 40
M  V30 33 1 41 42
M  V30 34 1 41 43
M  V30 35 1 41 44
M  V30 36 1 41 45
M  V30 37 1 46 47
M  V30 38 1 47 48
M  V30 39 1 49 50
M  V30 40 1 50 51
M  V30 41 1 52 53
M  V30 42 1 53 54
M  V30 43 1 55 56
M  V30 44 1 56 57
M  V30 45 1 58 59
M  V30 46 1 59 60
M  V30 47 1 61 62
M  V30 48 1 62 63
M  V30 49 1 64 65
M  V30 50 1 65 66
M  V30 51 1 67 68
M  V30 52 1 68 69
M  V30 53 1 70 71
M  V30 54 1 71 72
M  V30 55 1 73 74
M  V30 56 1 74 75
M  V30 57 1 76 77
M  V30 58 1 77 78
M  V30 59 1 79 80
M  V30 60 1 80 81
M  V30 61 1 82 83
M  V30 62 1 83 84
M  V30 63 1 85 86
M  V30 64 1 86 87
M  V30 65 1 88 89
M  V30 66 1 89 90
M  V30 67 1 91 92
M  V30 68 1 92 93
M  V30 69 1 94 95
M  V30 70 1 95 96
M  V30 71 1 97 98
M  V30 72 1 98 99
M  V30 73 1 2 82
M  V30 74 1 3 76
M  V30 75 1 4 94
M  V30 76 1 5 70
M  V30 77 1 7 46
M  V30 78 1 8 61
M  V30 79 1 9 67
M  V30 80 1 10 58
M  V30 81 1 12 88
M  V30 82 1 13 79
M  V30 83 1 14 91
M  V30 84 1 15 85
M  V30 85 1 17 93
M  V30 86 1 18 55
M  V30 87 1 19 52
M  V30 88 1 20 64
M  V30 89 1 22 48
M  V30 90 1 23 81
M  V30 91 1 24 54
M  V30 92 1 25 49
M  V30 93 1 27 57
M  V30 94 1 28 97
M  V30 95 1 29 96
M  V30 96 1 30 66
M  V30 97 1 32 84
M  V30 98 1 33 99
M  V30 99 1 34 87
M  V30 100 1 35 90
M  V30 101 1 37 51
M  V30 102 1 38 73
M  V30 103 1 39 69
M  V30 104 1 40 72
M  V30 105 1 42 63
M  V30 106 1 43 78
M  V30 107 1 44 75
M  V30 108 1 45 60
M  V30 END BOND
M  V30 END CTAB
M  END

$$$$
