
     RDKit          3D

  0  0  0  0  0  0  0  0  0  0999 V3000
M  V30 BEGIN CTAB
M  V30 COUNTS 99 108 0 0 0
M  V30 BEGIN ATOM
M  V30 1 Pd -3.7622 3.4277 -0.9693 0
M  V30 2 Pb -4.0155 2.8437 -1.7452 0
M  V30 3 Pb -4.4721 2.9536 -0.4434 0
M  V30 4 Pb -3.0924 3.9435 -1.5059 0
M  V30 5 Pb -3.5348 4.0383 -0.2070 0
M  V30 6 Pd -2.8708 -3.4279 4.9447 0
M  V30 7 Pb -2.3633 -3.4180 4.0832 0
M  V30 8 Pb -3.6630 -3.8553 4.5072 0
M  V30 9 Pb -2.1435 -2.8792 5.3529 0
M  V30 10 Pb -3.4031 -3.3719 5.7876 0
M  V30 11 Pd 2.8417 -5.1512 -2.2275 0
M  V30 12 Pb 1.8660 -5.0458 -2.0139 0
M  V30 13 Pb 3.0945 -5.3400 -1.2792 0
M  V30 14 Pb 3.8153 -5.1346 -2.4459 0
M  V30 15 Pb 2.6113 -4.8878 -3.1599 0
M  V30 16 Pd 7.4658 0.2749 -1.9647 0
M  V30 17 Pb 7.5914 -0.6892 -2.1917 0
M  V30 18 Pb 7.2462 1.2309 -1.7674 0
M  V30 19 Pb 7.5142 0.0444 -0.9918 0
M  V30 20 Pb 7.3418 0.5036 -2.9296 0
M  V30 21 Pd 3.7808 -1.6888 1.4329 0
M  V30 22 Pb 2.8145 -1.9392 1.3641 0
M  V30 23 Pb 3.9787 -2.6691 1.4494 0
M  V30 24 Pb 4.7529 -1.4516 1.5018 0
M  V30 25 Pb 3.5466 -0.7157 1.4263 0
M  V30 26 Pd 2.7132 4.5227 -5.1298 0
M  V30 27 Pb 3.3519 4.7247 -4.3864 0
M  V30 28 Pb 2.0528 4.2286 -5.8180 0
M  V30 29 Pb 1.9595 4.9872 -4.6680 0
M  V30 30 Pb 3.4473 3.9846 -5.5414 0
M  V30 31 Pd -2.1873 -0.6573 -4.8268 0
M  V30 32 Pb -2.9466 -0.1222 -4.4496 0
M  V30 33 Pb -2.0207 0.0538 -5.5077 0
M  V30 34 Pb -1.4422 -1.1931 -5.2160 0
M  V30 35 Pb -2.2491 -1.3664 -4.1189 0
M  V30 36 Pd -1.1367 3.5075 3.9362 0
M  V30 37 Pb -0.3116 3.4288 3.3769 0
M  V30 38 Pb -1.9765 3.5354 4.4766 0
M  V30 39 Pb -0.7905 2.7730 4.5193 0
M  V30 40 Pb -1.5298 4.1921 3.3230 0
M  V30 41 Pd -6.7889 -0.8761 4.8316 0
M  V30 42 Pb -6.8370 -1.7834 4.4115 0
M  V30 43 Pb -6.9480 -0.4244 3.9535 0
M  V30 44 Pb -6.6086 0.0205 5.2297 0
M  V30 45 Pb -6.5579 -1.3205 5.6954 0
M  V30 46 Ag -1.9754 -3.3571 3.4441 0
M  V30 47 Fe 0.0566 -2.7701 2.3629 0
M  V30 48 Ag 2.1032 -2.1741 1.3145 0
M  V30 49 Ag 3.3557 0.0105 1.4319 0
M  V30 50 Fe 1.8618 1.7029 2.1717 0
M  V30 51 Ag 0.3064 3.3117 2.9688 0
M  V30 52 Ag 7.0110 1.9413 -1.7081 0
M  V30 53 Fe 5.4794 3.4826 -2.6693 0
M  V30 54 Ag 3.8582 4.7711 -3.8339 0
M  V30 55 Ag 2.3857 -4.6221 -3.8190 0
M  V30 56 Fe 0.8000 -3.1498 -4.7853 0
M  V30 57 Ag -0.8861 -1.6274 -5.4601 0
M  V30 58 Ag 1.1342 -4.8833 -1.9240 0
M  V30 59 Fe -0.6142 -3.4574 -2.6858 0
M  V30 60 Ag -2.1805 -1.9220 -3.6129 0
M  V30 61 Ag 7.1757 0.7294 -3.6244 0
M  V30 62 Fe 5.6691 2.1028 -4.8402 0
M  V30 63 Ag 4.0209 3.5497 -5.7478 0
M  V30 64 Ag 4.5436 -5.0246 -2.5738 0
M  V30 65 Fe 6.1992 -3.3268 -2.5171 0
M  V30 66 Ag 7.5991 -1.4183 -2.3588 0
M  V30 67 Ag -1.6431 -2.3832 5.6049 0
M  V30 68 Fe -0.9950 -0.1127 5.3637 0
M  V30 69 Ag -0.5704 2.1805 4.9223 0
M  V30 70 Ag -2.6027 4.3902 -1.8602 0
M  V30 71 Fe -0.6220 4.8306 -3.0952 0
M  V30 72 Ag 1.3558 5.2766 -4.3329 0
M  V30 73 Ag -2.6229 3.5066 4.8535 0
M  V30 74 Fe -4.5609 2.2003 5.2617 0
M  V30 75 Ag -6.3754 0.6869 5.4748 0
M  V30 76 Ag -5.0403 2.5929 -0.1062 0
M  V30 77 Fe -6.0165 1.2677 1.6085 0
M  V30 78 Ag -7.0276 -0.0545 3.3054 0
M  V30 79 Ag 1.5044 3.9611 -6.2505 0
M  V30 80 Fe -0.2092 2.3206 -6.2721 0
M  V30 81 Ag -1.8068 0.5905 -5.9834 0
M  V30 82 Ba -4.2802 2.4063 -2.2989 0
M  V30 83 Ga -3.8456 1.3477 -3.2354 0
M  V30 84 Ba -3.5339 0.2866 -4.2172 0
M  V30 85 Ba 7.5211 -0.1510 -0.2665 0
M  V30 86 Ga 6.5028 -0.7058 0.6498 0
M  V30 87 Ba 5.4790 -1.2608 1.5597 0
M  V30 88 Ba -3.8556 -3.2823 6.3767 0
M  V30 89 Ga -5.1033 -2.5041 6.4360 0
M  V30 90 Ba -6.3172 -1.6824 6.3044 0
M  V30 91 Ba -4.3080 -4.0868 4.2001 0
M  V30 92 Ga -5.5849 -3.3492 4.1184 0
M  V30 93 Ba -6.7751 -2.4749 4.1248 0
M  V30 94 Ba -3.3441 4.5446 0.3168 0
M  V30 95 Ga -2.6030 4.5937 1.5935 0
M  V30 96 Ba -1.8705 4.6855 2.8728 0
M  V30 97 Ba 3.3486 -5.4316 -0.5798 0
M  V30 98 Ga 3.7120 -4.4534 0.4630 0
M  V30 99 Ba 4.0525 -3.4159 1.4551 0
M  V30 END ATOM
M  V30 BEGIN BOND
M  V30 1 1 1 2
M  V30 2 1 1 3
M  V30 3 1 1 4
M  V30 4 1 1 5
M  V30 5 1 6 7
M  V30 6 1 6 8
M  V30 7 1 6 9
M  V30 8 1 6 10
M  V30 9 1 11 12
M  V30 10 1 11 13
M  V30 11 1 11 14
M  V30 12 1 11 15
M  V30 13 1 16 17
M  V30 14 1 16 18
M  V30 15 1 16 19
M  V30 16 1 16 20
M  V30 17 1 21 22
M  V30 18 1 21 23
M  V30 19 1 21 24
M  V30 20 1 21 25
M  V30 21 1 26 27
M  V30 22 1 26 28
M  V30 23 1 26 29
M  V30 24 1 26 30
M  V30 25 1 31 32
M  V30 26 1 31 33
M  V30 27 1 31 34
M  V30 28 1 31 35
M  V30 29 1 36 37
M  V30 30 1 36 38
M  V30 31 1 36 39
M  V30 32 1 36 40
M  V30 33 1 41 42
M  V30 34 1 41 43
M  V30 35 1 41 44
M  V30 36 1 41 45
M  V30 37 1 46 47
M  V30 38 1 47 48
M  V30 39 1 49 50
M  V30 40 1 50 51
M  V30 41 1 52 53
M  V30 42 1 53 54
M  V30 43 1 55 56
M  V30 44 1 56 57
M  V30 45 1 58 59
M  V30 46 1 59 60
M  V30 47 1 61 62
M  V30 48 1 62 63
M  V30 49 1 64 65
M  V30 50 1 65 66
M  V30 51 1 67 68
M  V30 52 1 68 69
M  V30 53 1 70 71
M  V30 54 1 71 72
M  V30 55 1 73 74
M  V30 56 1 74 75
M  V30 57 1 76 77
M  V30 58 1 77 78
M  V30 59 1 79 80
M  V30 60 1 80 81
M  V30 61 1 82 83
M  V30 62 1 83 84
M  V30 63 1 85 86
M  V30 64 1 86 87
M  V30 65 1 88 89
M  V30 66 1 89 90
M  V30 67 1 91 92
M  V30 68 1 92 93
M  V30 69 1 94 95
M  V30 70 1 95 96
M  V30 71 1 97 98
M  V30 72 1 98 99
M  V30 73 1 2 82
M  V30 74 1 3 76
M  V30 75 1 4 70
M  V30 76 1 5 94
M  V30 77 1 7 46
M  V30 78 1 8 91
M  V30 79 1 9 67
M  V30 80 1 10 88
M  V30 81 1 12 58
M  V30 82 1 13 97
M  V30 83 1 14 64
M  V30 84 1 15 55
M  V30 85 1 17 66
M  V30 86 1 18 52
M  V30 87 1 19 85
M  V30 88 1 20 61
M  V30 89 1 22 48
M  V30 90 1 23 99
M  V30 91 1 24 87
M  V30 92 1 25 49
M  V30 93 1 27 54
M  V30 94 1 28 79
M  V30 95 1 29 72
M  V30 96 1 30 63
M  V30 97 1 32 84
M  V30 98 1 33 81
M  V30 99 1 34 57
M  V30 100 1 35 60
M  V30 101 1 37 51
M  V30 102 1 38 73
M  V30 103 1 39 69
M  V30 104 1 40 96
M  V30 105 1 42 93
M  V30 106 1 43 78
M  V30 107 1 44 75
M  V30 108 1 45 90
M  V30 END BOND
M  V30 END CTAB
M  END

$$$$
