
     RDKit          3D

  0  0  0  0  0  0  0  0  0  0999 V3000
M  V30 BEGIN CTAB
M  V30 COUNTS 99 108 0 0 0
M  V30 BEGIN ATOM
M  V30 1 Pd -2.3226 1.8440 2.6251 0
M  V30 2 Pb -3.1503 1.4767 2.1975 0
M  V30 3 Pb -2.3695 1.0637 3.2526 0
M  V30 4 Pb -2.3694 2.6610 2.0515 0
M  V30 5 Pb -1.4861 2.2250 3.0284 0
M  V30 6 Pd 4.2803 -6.1612 4.8939 0
M  V30 7 Pb 4.1825 -6.0448 3.9066 0
M  V30 8 Pb 4.2966 -6.1811 5.8907 0
M  V30 9 Pb 4.9756 -5.4476 4.8901 0
M  V30 10 Pb 3.4489 -6.7152 4.9448 0
M  V30 11 Pd -0.3513 -1.5410 -5.3979 0
M  V30 12 Pb -1.0297 -1.1539 -6.0033 0
M  V30 13 Pb 0.3570 -1.9969 -4.8539 0
M  V30 14 Pb 0.2938 -1.3197 -6.1243 0
M  V30 15 Pb -1.0519 -1.6588 -4.6611 0
M  V30 16 Pd 0.7060 3.2920 -6.6839 0
M  V30 17 Pb 0.8448 2.4191 -7.1574 0
M  V30 18 Pb 0.6309 4.1695 -6.2209 0
M  V30 19 Pb 1.5640 3.1243 -6.2051 0
M  V30 20 Pb -0.2163 3.4405 -7.0577 0
M  V30 21 Pd 3.6081 -1.1435 -1.1663 0
M  V30 22 Pb 3.6274 -1.9572 -0.5811 0
M  V30 23 Pb 3.2247 -1.7346 -1.8780 0
M  V30 24 Pb 3.6715 -0.3820 -1.8103 0
M  V30 25 Pb 3.9793 -0.5282 -0.4655 0
M  V30 26 Pd -3.2889 5.3044 -4.1300 0
M  V30 27 Pb -2.3858 5.6891 -4.2923 0
M  V30 28 Pb -4.2103 4.9655 -3.9258 0
M  V30 29 Pb -3.1965 5.5223 -3.1618 0
M  V30 30 Pb -3.2992 4.9935 -5.0869 0
M  V30 31 Pd -5.0141 0.8078 -2.4171 0
M  V30 32 Pb -5.0158 0.7096 -1.4192 0
M  V30 33 Pb -5.5697 1.6339 -2.3759 0
M  V30 34 Pb -4.3766 0.0160 -2.5357 0
M  V30 35 Pb -5.1074 0.9002 -3.3965 0
M  V30 36 Pd 3.2026 1.0106 4.2134 0
M  V30 37 Pb 3.6309 1.1352 3.3161 0
M  V30 38 Pb 2.7925 0.8900 5.1182 0
M  V30 39 Pb 3.9087 0.3277 4.4047 0
M  V30 40 Pb 2.5011 1.7043 4.0384 0
M  V30 41 Pd -0.8391 -3.5824 8.1666 0
M  V30 42 Pb -0.0878 -3.9726 8.6935 0
M  V30 43 Pb -1.5080 -3.1784 7.5443 0
M  V30 44 Pb -0.5508 -2.6639 8.4229 0
M  V30 45 Pb -0.9668 -4.4909 7.7676 0
M  V30 46 Ag 4.0865 -5.8944 3.1788 0
M  V30 47 Fe 3.8796 -4.2262 1.4984 0
M  V30 48 Ag 3.6581 -2.6337 -0.2517 0
M  V30 49 Ag 2.1629 2.9648 -5.7885 0
M  V30 50 Fe 2.9997 1.5846 -4.0490 0
M  V30 51 Ag 3.7707 0.1730 -2.3042 0
M  V30 52 Ag 2.7643 -6.9943 5.0742 0
M  V30 53 Fe 0.7887 -6.2927 6.1921 0
M  V30 54 Ag -0.8974 -5.1499 7.4150 0
M  V30 55 Ag 4.1789 -6.1296 6.6257 0
M  V30 56 Fe 2.4845 -5.2800 8.0467 0
M  V30 57 Ag 0.5326 -4.2929 8.9567 0
M  V30 58 Ag -1.5751 -0.8471 -6.3891 0
M  V30 59 Fe -3.5774 0.1893 -5.7451 0
M  V30 60 Ag -5.1074 0.9323 -4.1310 0
M  V30 61 Ag 5.3766 -4.8180 4.8970 0
M  V30 62 Fe 5.0389 -2.4756 4.7189 0
M  V30 63 Ag 4.4444 -0.1867 4.5138 0
M  V30 64 Ag -2.4330 3.2980 1.6617 0
M  V30 65 Fe -2.7629 4.4874 -0.3650 0
M  V30 66 Ag -3.0944 5.6131 -2.4275 0
M  V30 67 Ag 2.4559 0.8150 5.7850 0
M  V30 68 Fe 1.1058 -0.4944 7.2332 0
M  V30 69 Ag -0.2453 -1.9861 8.4909 0
M  V30 70 Ag -2.5324 0.4847 3.7058 0
M  V30 71 Fe -2.1965 -1.1656 5.3827 0
M  V30 72 Ag -1.9570 -2.8501 7.0423 0
M  V30 73 Ba -3.7745 1.1727 1.9101 0
M  V30 74 Ga -4.3859 0.9242 0.5880 0
M  V30 75 Ba -5.0907 0.6232 -0.6752 0
M  V30 76 Ba 4.2652 0.0006 -0.0106 0
M  V30 77 Ga 4.0937 0.5673 1.3445 0
M  V30 78 Ba 4.0120 1.2129 2.6725 0
M  V30 79 Ba 0.5668 4.8245 -5.8721 0
M  V30 80 Ga -0.5464 5.4339 -5.1364 0
M  V30 81 Ba -1.7076 5.9702 -4.4181 0
M  V30 82 Ba -1.5752 -1.7618 -4.1015 0
M  V30 83 Ga -2.7338 -1.1042 -3.4062 0
M  V30 84 Ba -3.9023 -0.5896 -2.6138 0
M  V30 85 Ba -0.9293 3.5803 -7.2704 0
M  V30 86 Ga -2.0974 4.1578 -6.5571 0
M  V30 87 Ba -3.2333 4.7409 -5.7975 0
M  V30 88 Ba 0.6908 -1.0591 -6.7012 0
M  V30 89 Ga 0.8880 0.3416 -7.1221 0
M  V30 90 Ba 1.0372 1.7659 -7.4794 0
M  V30 91 Ba -0.8738 2.5893 3.2747 0
M  V30 92 Ga 0.5466 2.3541 3.6120 0
M  V30 93 Ba 1.9758 2.2386 3.9742 0
M  V30 94 Ba -4.8928 4.7531 -3.6884 0
M  V30 95 Ga -5.4509 3.5347 -3.0698 0
M  V30 96 Ba -5.9360 2.2791 -2.4648 0
M  V30 97 Ba 0.8921 -2.3905 -4.4999 0
M  V30 98 Ga 1.9029 -2.2437 -3.4323 0
M  V30 99 Ba 2.9461 -2.2127 -2.3863 0
M  V30 END ATOM
M  V30 BEGIN BOND
M  V30 1 1 1 2
M  V30 2 1 1 3
M  V30 3 1 1 4
M  V30 4 1 1 5
M  V30 5 1 6 7
M  V30 6 1 6 8
M  V30 7 1 6 9
M  V30 8 1 6 10
M  V30 9 1 11 12
M  V30 10 1 11 13
M  V30 11 1 11 14
M  V30 12 1 11 15
M  V30 13 1 16 17
M  V30 14 1 16 18
M  V30 15 1 16 19
M  V30 16 1 16 20
M  V30 17 1 21 22
M  V30 18 1 21 23
M  V30 19 1 21 24
M  V30 20 1 21 25
M  V30 21 1 26 27
M  V30 22 1 26 28
M  V30 23 1 26 29
M  V30 24 1 26 30
M  V30 25 1 31 32
M  V30 26 1 31 33
M  V30 27 1 31 34
M  V30 28 1 31 35
M  V30 29 1 36 37
M  V30 30 1 36 38
M  V30 31 1 36 39
M  V30 32 1 36 40
M  V30 33 1 41 42
M  V30 34 1 41 43
M  V30 35 1 41 44
M  V30 36 1 41 45
M  V30 37 1 46 47
M  V30 38 1 47 48
M  V30 39 1 49 50
M  V30 40 1 50 51
M  V30 41 1 52 53
M  V30 42 1 53 54
M  V30 43 1 55 56
M  V30 44 1 56 57
M  V30 45 1 58 59
M  V30 46 1 59 60
M  V30 47 1 61 62
M  V30 48 1 62 63
M  V30 49 1 64 65
M  V30 50 1 65 66
M  V30 51 1 67 68
M  V30 52 1 68 69
M  V30 53 1 70 71
M  V30 54 1 71 72
M  V30 55 1 73 74
M  V30 56 1 74 75
M  V30 57 1 76 77
M  V30 58 1 77 78
M  V30 59 1 79 80
M  V30 60 1 80 81
M  V30 61 1 82 83
M  V30 62 1 83 84
M  V30 63 1 85 86
M  V30 64 1 86 87
M  V30 65 1 88 89
M  V30 66 1 89 90
M  V30 67 1 91 92
M  V30 68 1 92 93
M  V30 69 1 94 95
M  V30 70 1 95 96
M  V30 71 1 97 98
M  V30 72 1 98 99
M  V30 73 1 2 73
M  V30 74 1 3 70
M  V30 75 1 4 64
M  V30 76 1 5 91
M  V30 77 1 7 46
M  V30 78 1 8 55
M  V30 79 1 9 61
M  V30 80 1 10 52
M  V30 81 1 12 58
M  V30 82 1 13 97
M  V30 83 1 14 88
M  V30 84 1 15 82
M  V30 85 1 17 90
M  V30 86 1 18 79
M  V30 87 1 19 49
M  V30 88 1 20 85
M  V30 89 1 22 48
M  V30 90 1 23 99
M  V30 91 1 24 51
M  V30 92 1 25 76
M  V30 93 1 27 81
M  V30 94 1 28 94
M  V30 95 1 29 66
M  V30 96 1 30 87
M  V30 97 1 32 75
M  V30 98 1 33 96
M  V30 99 1 34 84
M  V30 100 1 35 60
M  V30 101 1 37 78
M  V30 102 1 38 67
M  V30 103 1 39 63
M  V30 104 1 40 93
M  V30 105 1 42 57
M  V30 106 1 43 72
M  V30 107 1 44 69
M  V30 108 1 45 54
M  V30 END BOND
M  V30 END CTAB
M  END

$$$$
