
     RDKit          3D

  0  0  0  0  0  0  0  0  0  0999 V3000
M  V30 BEGIN CTAB
M  V30 COUNTS 99 108 0 0 0
M  V30 BEGIN ATOM
M  V30 1 Pd 2.9552 1.0114 -4.7351 0
M  V30 2 Pb 3.0614 0.0178 -4.7583 0
M  V30 3 Pb 2.1126 0.9353 -5.2654 0
M  V30 4 Pb 3.7931 1.0661 -4.1916 0
M  V30 5 Pb 2.8506 2.0068 -4.7152 0
M  V30 6 Pd -5.1128 2.4034 -1.2899 0
M  V30 7 Pb -4.4421 1.6770 -1.1277 0
M  V30 8 Pb -5.8146 3.1007 -1.4101 0
M  V30 9 Pb -4.6091 3.0556 -0.7284 0
M  V30 10 Pb -5.4917 1.8958 -2.0773 0
M  V30 11 Pd -1.6803 -4.5068 4.4491 0
M  V30 12 Pb -0.8013 -4.9843 4.4392 0
M  V30 13 Pb -2.5289 -3.9781 4.4210 0
M  V30 14 Pb -1.5930 -4.3319 5.4292 0
M  V30 15 Pb -1.7167 -4.6599 3.4623 0
M  V30 16 Pd 1.2108 -0.9286 6.6864 0
M  V30 17 Pb 0.6385 -1.6120 7.1387 0
M  V30 18 Pb 1.7791 -0.2721 6.1920 0
M  V30 19 Pb 0.4657 -0.2662 6.7471 0
M  V30 20 Pb 1.9471 -1.5918 6.5505 0
M  V30 21 Pd -2.3108 0.4320 3.0032 0
M  V30 22 Pb -2.4557 0.1615 2.0497 0
M  V30 23 Pb -2.9984 -0.2249 3.3154 0
M  V30 24 Pb -2.1622 0.7247 3.9490 0
M  V30 25 Pb -1.5956 1.0497 2.6799 0
M  V30 26 Pd 6.2789 -1.6168 1.5561 0
M  V30 27 Pb 5.8968 -0.8263 2.0326 0
M  V30 28 Pb 6.6067 -2.4359 1.0846 0
M  V30 29 Pb 6.4421 -1.0602 0.7414 0
M  V30 30 Pb 6.0551 -2.1523 2.3710 0
M  V30 31 Pd 3.4609 -5.3640 -0.5913 0
M  V30 32 Pb 3.4954 -5.0139 -1.5261 0
M  V30 33 Pb 4.4575 -5.3046 -0.5283 0
M  V30 34 Pb 2.4617 -5.3740 -0.6174 0
M  V30 35 Pb 3.3881 -5.6678 0.3587 0
M  V30 36 Pd -0.6012 4.8969 -2.7476 0
M  V30 37 Pb -0.1577 4.5087 -1.9422 0
M  V30 38 Pb -1.0346 5.2963 -3.5645 0
M  V30 39 Pb -1.3946 5.0118 -2.1382 0
M  V30 40 Pb 0.2375 4.8010 -3.2881 0
M  V30 41 Pd -4.2325 3.5170 -6.3318 0
M  V30 42 Pb -4.9850 4.1609 -6.2184 0
M  V30 43 Pb -3.4819 2.8737 -6.4741 0
M  V30 44 Pb -3.6078 4.2867 -6.4477 0
M  V30 45 Pb -4.8120 2.7749 -5.9601 0
M  V30 46 Ag 3.1531 -0.7260 -4.7609 0
M  V30 47 Fe 3.3340 -2.7468 -3.5281 0
M  V30 48 Ag 3.5030 -4.7160 -2.2131 0
M  V30 49 Ag -1.0592 1.4822 2.3868 0
M  V30 50 Fe -0.3966 2.8675 0.5775 0
M  V30 51 Ag 0.1070 4.2254 -1.3024 0
M  V30 52 Ag 2.2390 0.1548 5.7830 0
M  V30 53 Fe 3.9169 0.0764 4.1060 0
M  V30 54 Ag 5.5588 -0.2901 2.4315 0
M  V30 55 Ag -1.6542 -4.7822 2.7257 0
M  V30 56 Fe -0.0701 -5.0876 0.9839 0
M  V30 57 Ag 1.7147 -5.3607 -0.5576 0
M  V30 58 Ag -6.2850 3.6237 -1.6436 0
M  V30 59 Fe -6.4212 4.5629 -3.7929 0
M  V30 60 Ag -5.5437 4.5802 -5.9719 0
M  V30 61 Ag -0.1306 -5.3094 4.3529 0
M  V30 62 Fe 1.6348 -5.6590 2.8028 0
M  V30 63 Ag 3.2472 -5.8588 1.0703 0
M  V30 64 Ag 2.5184 -2.0427 6.3682 0
M  V30 65 Fe 4.2219 -2.3836 4.7482 0
M  V30 66 Ag 5.8251 -2.4932 2.9987 0
M  V30 67 Ag 4.4158 1.0640 -3.7734 0
M  V30 68 Fe 5.5164 0.2469 -1.8338 0
M  V30 69 Ag 6.5203 -0.6295 0.1323 0
M  V30 70 Ag 1.4760 0.8709 -5.6536 0
M  V30 71 Fe -0.7218 1.6327 -6.1254 0
M  V30 72 Ag -2.9195 2.3949 -6.5966 0
M  V30 73 Ba -3.9701 1.1051 -1.0023 0
M  V30 74 Ga -3.2560 0.5519 0.1671 0
M  V30 75 Ba -2.5335 -0.0169 1.3237 0
M  V30 76 Ba -0.1038 0.2201 6.7505 0
M  V30 77 Ga -1.0870 0.5967 5.7175 0
M  V30 78 Ba -2.0522 0.9464 4.6583 0
M  V30 79 Ba -5.7288 1.5836 -2.7314 0
M  V30 80 Ga -5.4835 1.9029 -4.1703 0
M  V30 81 Ba -5.2241 2.2405 -5.6025 0
M  V30 82 Ba -1.4943 -4.1769 6.1558 0
M  V30 83 Ga -0.6640 -3.1676 6.8378 0
M  V30 84 Ba 0.1921 -2.1314 7.4431 0
M  V30 85 Ba -4.2225 3.6322 -0.4463 0
M  V30 86 Ga -3.0542 4.3539 -1.0019 0
M  V30 87 Ba -1.8920 5.0764 -1.5695 0
M  V30 88 Ba 2.7743 2.7540 -4.7171 0
M  V30 89 Ga 1.8072 3.7379 -4.1889 0
M  V30 90 Ba 0.8751 4.7677 -3.6859 0
M  V30 91 Ba -1.2793 5.5969 -4.2157 0
M  V30 92 Ga -2.2057 5.2453 -5.3162 0
M  V30 93 Ba -3.1433 4.8730 -6.4003 0
M  V30 94 Ba 6.8147 -3.0657 0.7336 0
M  V30 95 Ga 6.0381 -4.1610 0.1218 0
M  V30 96 Ba 5.2012 -5.2217 -0.4713 0
M  V30 97 Ba -3.1434 -3.5490 4.3842 0
M  V30 98 Ga -3.3489 -2.1459 3.9750 0
M  V30 99 Ba -3.4913 -0.7384 3.5545 0
M  V30 END ATOM
M  V30 BEGIN BOND
M  V30 1 1 1 2
M  V30 2 1 1 3
M  V30 3 1 1 4
M  V30 4 1 1 5
M  V30 5 1 6 7
M  V30 6 1 6 8
M  V30 7 1 6 9
M  V30 8 1 6 10
M  V30 9 1 11 12
M  V30 10 1 11 13
M  V30 11 1 11 14
M  V30 12 1 11 15
M  V30 13 1 16 17
M  V30 14 1 16 18
M  V30 15 1 16 19
M  V30 16 1 16 20
M  V30 17 1 21 22
M  V30 18 1 21 23
M  V30 19 1 21 24
M  V30 20 1 21 25
M  V30 21 1 26 27
M  V30 22 1 26 28
M  V30 23 1 26 29
M  V30 24 1 26 30
M  V30 25 1 31 32
M  V30 26 1 31 33
M  V30 27 1 31 34
M  V30 28 1 31 35
M  V30 29 1 36 37
M  V30 30 1 36 38
M  V30 31 1 36 39
M  V30 32 1 36 40
M  V30 33 1 41 42
M  V30 34 1 41 43
M  V30 35 1 41 44
M  V30 36 1 41 45
M  V30 37 1 46 47
M  V30 38 1 47 48
M  V30 39 1 49 50
M  V30 40 1 50 51
M  V30 41 1 52 53
M  V30 42 1 53 54
M  V30 43 1 55 56
M  V30 44 1 56 57
M  V30 45 1 58 59
M  V30 46 1 59 60
M  V30 47 1 61 62
M  V30 48 1 62 63
M  V30 49 1 64 65
M  V30 50 1 65 66
M  V30 51 1 67 68
M  V30 52 1 68 69
M  V30 53 1 70 71
M  V30 54 1 71 72
M  V30 55 1 73 74
M  V30 56 1 74 75
M  V30 57 1 76 77
M  V30 58 1 77 78
M  V30 59 1 79 80
M  V30 60 1 80 81
M  V30 61 1 82 83
M  V30 62 1 83 84
M  V30 63 1 85 86
M  V30 64 1 86 87
M  V30 65 1 88 89
M  V30 66 1 89 90
M  V30 67 1 91 92
M  V30 68 1 92 93
M  V30 69 1 94 95
M  V30 70 1 95 96
M  V30 71 1 97 98
M  V30 72 1 98 99
M  V30 73 1 2 46
M  V30 74 1 3 70
M  V30 75 1 4 67
M  V30 76 1 5 88
M  V30 77 1 7 73
M  V30 78 1 8 58
M  V30 79 1 9 85
M  V30 80 1 10 79
M  V30 81 1 12 61
M  V30 82 1 13 97
M  V30 83 1 14 82
M  V30 84 1 15 55
M  V30 85 1 17 84
M  V30 86 1 18 52
M  V30 87 1 19 76
M  V30 88 1 20 64
M  V30 89 1 22 75
M  V30 90 1 23 99
M  V30 91 1 24 78
M  V30 92 1 25 49
M  V30 93 1 27 54
M  V30 94 1 28 94
M  V30 95 1 29 69
M  V30 96 1 30 66
M  V30 97 1 32 48
M  V30 98 1 33 96
M  V30 99 1 34 57
M  V30 100 1 35 63
M  V30 101 1 37 51
M  V30 102 1 38 91
M  V30 103 1 39 87
M  V30 104 1 40 90
M  V30 105 1 42 60
M  V30 106 1 43 72
M  V30 107 1 44 93
M  V30 108 1 45 81
M  V30 END BOND
M  V30 END CTAB
M  END

$$$$
