
     RDKit          3D

  0  0  0  0  0  0  0  0  0  0999 V3000
M  V30 BEGIN CTAB
M  V30 COUNTS 99 108 0 0 0
M  V30 BEGIN ATOM
M  V30 1 Pd -1.5760 -3.9407 -9.1802 0
M  V30 2 Pb -0.7211 -3.5905 -9.5658 0
M  V30 3 Pb -1.9221 -3.9978 -10.1126 0
M  V30 4 Pb -1.2227 -3.8994 -8.2448 0
M  V30 5 Pb -2.5327 -4.0040 -8.8722 0
M  V30 6 Pd 5.4337 -2.4781 11.0008 0
M  V30 7 Pb 5.9612 -1.7110 11.3661 0
M  V30 8 Pb 5.4579 -2.9129 11.8992 0
M  V30 9 Pb 5.4344 -2.0584 10.0930 0
M  V30 10 Pb 4.5794 -2.9799 10.7854 0
M  V30 11 Pd -3.8037 3.0908 -4.0834 0
M  V30 12 Pb -3.0261 3.2710 -3.4812 0
M  V30 13 Pb -4.2202 3.0910 -4.9918 0
M  V30 14 Pb -3.3040 2.2623 -4.3500 0
M  V30 15 Pb -3.8548 2.9037 -3.0987 0
M  V30 16 Pd 1.2446 1.4220 -3.5634 0
M  V30 17 Pb 0.5070 1.0622 -4.1359 0
M  V30 18 Pb 1.0589 2.3597 -3.8534 0
M  V30 19 Pb 1.8741 1.8039 -2.8636 0
M  V30 20 Pb 1.3619 0.5332 -3.1238 0
M  V30 21 Pd 1.7931 0.2714 4.6820 0
M  V30 22 Pb 2.1632 -0.0505 3.8106 0
M  V30 23 Pb 2.6473 0.0634 5.1574 0
M  V30 24 Pb 0.9458 0.4736 4.1910 0
M  V30 25 Pb 1.4077 0.5969 5.5448 0
M  V30 26 Pd -0.6940 -0.4705 -2.2353 0
M  V30 27 Pb -0.6582 0.5141 -2.0578 0
M  V30 28 Pb -1.0391 -0.1189 -1.3644 0
M  V30 29 Pb 0.1597 -0.6301 -1.7390 0
M  V30 30 Pb -0.5112 -1.2421 -2.8446 0
M  V30 31 Pd 0.5139 3.2681 1.4210 0
M  V30 32 Pb -0.4617 3.2132 1.6140 0
M  V30 33 Pb 0.3735 4.1495 0.9720 0
M  V30 34 Pb 1.3965 3.2051 0.9355 0
M  V30 35 Pb 0.6412 2.3180 1.7010 0
M  V30 36 Pd -4.4476 -0.5609 -10.8571 0
M  V30 37 Pb -4.2017 -1.3242 -11.4475 0
M  V30 38 Pb -4.8873 -1.2331 -10.2495 0
M  V30 39 Pb -3.7519 -0.0230 -11.3353 0
M  V30 40 Pb -4.6951 0.2064 -10.2654 0
M  V30 41 Pd 0.9901 -0.5670 12.3887 0
M  V30 42 Pb 1.3874 0.2561 12.7948 0
M  V30 43 Pb 0.8292 -0.0776 11.5315 0
M  V30 44 Pb 1.1224 -1.0483 13.2534 0
M  V30 45 Pb 1.0266 -1.4518 11.8951 0
M  V30 46 Ag 0.3431 0.6001 3.7630 0
M  V30 47 Fe -0.5454 0.4058 1.5690 0
M  V30 48 Ag -1.2418 0.1253 -0.6842 0
M  V30 49 Ag 1.4076 0.0046 -2.6012 0
M  V30 50 Fe 1.1551 0.2935 -0.2692 0
M  V30 51 Ag 0.7656 1.5842 1.6717 0
M  V30 52 Ag -0.2947 -3.1148 -9.9544 0
M  V30 53 Fe -1.1907 -1.2075 -11.0333 0
M  V30 54 Ag -3.0610 0.1415 -11.5693 0
M  V30 55 Ag 5.3190 -3.1549 12.5867 0
M  V30 56 Fe 3.4028 -2.6398 13.8446 0
M  V30 57 Ag 1.3727 -1.4578 13.8193 0
M  V30 58 Ag 0.9043 3.0883 -3.8290 0
M  V30 59 Fe 0.5133 4.3830 -1.8907 0
M  V30 60 Ag 0.3032 4.6727 0.4457 0
M  V30 61 Ag 2.3760 -0.2747 3.1274 0
M  V30 62 Fe 1.6696 -0.5485 0.8766 0
M  V30 63 Ag 0.7686 -0.7353 -1.3134 0
M  V30 64 Ag -0.9474 -3.8872 -7.5465 0
M  V30 65 Fe -0.6698 -2.8435 -5.4308 0
M  V30 66 Ag -0.3803 -1.8168 -3.3083 0
M  V30 67 Ag -4.5201 3.0683 -5.6781 0
M  V30 68 Fe -4.7134 1.9392 -7.7581 0
M  V30 69 Ag -4.8837 0.7843 -9.8260 0
M  V30 70 Ag -3.8857 2.8395 -2.3483 0
M  V30 71 Fe -2.6957 2.9519 -0.2949 0
M  V30 72 Ag -1.1989 3.1164 1.5421 0
M  V30 73 Ag 6.0426 -1.0504 11.7117 0
M  V30 74 Fe 4.2428 0.2501 12.5546 0
M  V30 75 Ag 1.9533 0.7084 12.9890 0
M  V30 76 Ag 1.1319 0.8376 6.1987 0
M  V30 77 Fe 0.9132 0.5632 8.5474 0
M  V30 78 Ag 0.6896 0.2966 10.8965 0
M  V30 79 Ag 5.4542 -1.7530 9.4082 0
M  V30 80 Fe 4.3639 -0.9212 7.4695 0
M  V30 81 Ag 3.2816 -0.0875 5.5271 0
M  V30 82 Ba -2.4350 3.3469 -3.0262 0
M  V30 83 Ga -1.5197 2.3351 -2.4659 0
M  V30 84 Ba -0.6537 1.2576 -1.9517 0
M  V30 85 Ba -2.2073 -3.9968 -10.8016 0
M  V30 86 Ga -3.1004 -3.0042 -11.4088 0
M  V30 87 Ba -3.9834 -1.9166 -11.8435 0
M  V30 88 Ba 3.8622 -3.2402 10.6938 0
M  V30 89 Ga 2.5229 -2.6907 11.0973 0
M  V30 90 Ba 1.2086 -2.0989 11.5226 0
M  V30 91 Ba -3.2746 -3.9258 -8.7270 0
M  V30 92 Ga -4.2281 -2.8907 -9.2217 0
M  V30 93 Ba -5.0793 -1.8019 -9.7833 0
M  V30 94 Ba -2.9149 1.6718 -4.6113 0
M  V30 95 Ga -1.5063 1.2244 -4.5595 0
M  V30 96 Ba -0.0940 0.7907 -4.4955 0
M  V30 97 Ba 2.3218 2.0900 -2.3113 0
M  V30 98 Ga 2.1573 2.6038 -0.9172 0
M  V30 99 Ba 1.9989 3.1190 0.4771 0
M  V30 END ATOM
M  V30 BEGIN BOND
M  V30 1 1 1 2
M  V30 2 1 1 3
M  V30 3 1 1 4
M  V30 4 1 1 5
M  V30 5 1 6 7
M  V30 6 1 6 8
M  V30 7 1 6 9
M  V30 8 1 6 10
M  V30 9 1 11 12
M  V30 10 1 11 13
M  V30 11 1 11 14
M  V30 12 1 11 15
M  V30 13 1 16 17
M  V30 14 1 16 18
M  V30 15 1 16 19
M  V30 16 1 16 20
M  V30 17 1 21 22
M  V30 18 1 21 23
M  V30 19 1 21 24
M  V30 20 1 21 25
M  V30 21 1 26 27
M  V30 22 1 26 28
M  V30 23 1 26 29
M  V30 24 1 26 30
M  V30 25 1 31 32
M  V30 26 1 31 33
M  V30 27 1 31 34
M  V30 28 1 31 35
M  V30 29 1 36 37
M  V30 30 1 36 38
M  V30 31 1 36 39
M  V30 32 1 36 40
M  V30 33 1 41 42
M  V30 34 1 41 43
M  V30 35 1 41 44
M  V30 36 1 41 45
M  V30 37 1 46 47
M  V30 38 1 47 48
M  V30 39 1 49 50
M  V30 40 1 50 51
M  V30 41 1 52 53
M  V30 42 1 53 54
M  V30 43 1 55 56
M  V30 44 1 56 57
M  V30 45 1 58 59
M  V30 46 1 59 60
M  V30 47 1 61 62
M  V30 48 1 62 63
M  V30 49 1 64 65
M  V30 50 1 65 66
M  V30 51 1 67 68
M  V30 52 1 68 69
M  V30 53 1 70 71
M  V30 54 1 71 72
M  V30 55 1 73 74
M  V30 56 1 74 75
M  V30 57 1 76 77
M  V30 58 1 77 78
M  V30 59 1 79 80
M  V30 60 1 80 81
M  V30 61 1 82 83
M  V30 62 1 83 84
M  V30 63 1 85 86
M  V30 64 1 86 87
M  V30 65 1 88 89
M  V30 66 1 89 90
M  V30 67 1 91 92
M  V30 68 1 92 93
M  V30 69 1 94 95
M  V30 70 1 95 96
M  V30 71 1 97 98
M  V30 72 1 98 99
M  V30 73 1 2 52
M  V30 74 1 3 85
M  V30 75 1 4 64
M  V30 76 1 5 91
M  V30 77 1 7 73
M  V30 78 1 8 55
M  V30 79 1 9 79
M  V30 80 1 10 88
M  V30 81 1 12 82
M  V30 82 1 13 67
M  V30 83 1 14 94
M  V30 84 1 15 70
M  V30 85 1 17 96
M  V30 86 1 18 58
M  V30 87 1 19 97
M  V30 88 1 20 49
M  V30 89 1 22 61
M  V30 90 1 23 81
M  V30 91 1 24 46
M  V30 92 1 25 76
M  V30 93 1 27 84
M  V30 94 1 28 48
M  V30 95 1 29 63
M  V30 96 1 30 66
M  V30 97 1 32 72
M  V30 98 1 33 60
M  V30 99 1 34 99
M  V30 100 1 35 51
M  V30 101 1 37 87
M  V30 102 1 38 93
M  V30 103 1 39 54
M  V30 104 1 40 69
M  V30 105 1 42 75
M  V30 106 1 43 78
M  V30 107 1 44 57
M  V30 108 1 45 90
M  V30 END BOND
M  V30 END CTAB
M  END

$$$$
