
     RDKit          3D

  0  0  0  0  0  0  0  0  0  0999 V3000
M  V30 BEGIN CTAB
M  V30 COUNTS 99 108 0 0 0
M  V30 BEGIN ATOM
M  V30 1 Pd -2.6083 -2.6740 0.7962 0
M  V30 2 Pb -3.1266 -2.7117 1.6528 0
M  V30 3 Pb -2.1096 -2.6182 -0.0710 0
M  V30 4 Pb -2.7761 -3.6429 0.6018 0
M  V30 5 Pb -2.4489 -1.7047 0.9855 0
M  V30 6 Pd -0.8721 4.4747 -6.3761 0
M  V30 7 Pb -0.0650 4.7171 -5.8399 0
M  V30 8 Pb -0.3630 3.7436 -6.8403 0
M  V30 9 Pb -1.4097 5.1582 -5.8742 0
M  V30 10 Pb -1.6723 4.2146 -6.9136 0
M  V30 11 Pd 2.2397 1.1899 5.7422 0
M  V30 12 Pb 2.5591 0.5565 6.4362 0
M  V30 13 Pb 1.9362 1.8946 5.0950 0
M  V30 14 Pb 3.1509 1.1227 5.3455 0
M  V30 15 Pb 1.2866 1.0756 6.0845 0
M  V30 16 Pd 5.1758 -2.7077 0.1668 0
M  V30 17 Pb 5.3808 -2.3307 1.0681 0
M  V30 18 Pb 4.8784 -3.6158 0.5209 0
M  V30 19 Pb 5.3765 -1.7840 -0.1489 0
M  V30 20 Pb 4.9813 -3.0207 -0.7559 0
M  V30 21 Pd 2.2607 4.3957 0.5467 0
M  V30 22 Pb 2.4329 4.6647 -0.3992 0
M  V30 23 Pb 2.0236 4.1308 1.4865 0
M  V30 24 Pb 2.9818 3.7118 0.4340 0
M  V30 25 Pb 1.5562 5.1041 0.5980 0
M  V30 26 Pd 0.7074 -6.5742 0.4705 0
M  V30 27 Pb 1.6783 -6.3966 0.7246 0
M  V30 28 Pb 0.4321 -6.7023 1.4217 0
M  V30 29 Pb -0.2623 -6.6377 0.2382 0
M  V30 30 Pb 0.9513 -6.4661 -0.4866 0
M  V30 31 Pd -1.7884 -2.9090 6.3682 0
M  V30 32 Pb -2.5138 -2.7530 5.6945 0
M  V30 33 Pb -1.7781 -3.8747 6.1244 0
M  V30 34 Pb -1.6514 -1.9112 6.5258 0
M  V30 35 Pb -1.0951 -3.1075 7.0502 0
M  V30 36 Pd -2.7513 4.7669 -1.3147 0
M  V30 37 Pb -2.1463 5.4196 -0.8589 0
M  V30 38 Pb -3.3610 4.0974 -1.7360 0
M  V30 39 Pb -2.8324 5.3711 -2.1120 0
M  V30 40 Pb -2.6159 4.1270 -0.5596 0
M  V30 41 Pd -2.3705 -0.0541 -6.4181 0
M  V30 42 Pb -1.5250 0.0959 -6.9280 0
M  V30 43 Pb -1.9113 -0.6549 -5.7625 0
M  V30 44 Pb -3.1645 -0.0150 -5.8204 0
M  V30 45 Pb -2.8200 0.6046 -7.0176 0
M  V30 46 Ag 0.5336 4.8909 -5.4248 0
M  V30 47 Fe 1.5742 4.8965 -3.2918 0
M  V30 48 Ag 2.5240 4.8540 -1.1174 0
M  V30 49 Ag 5.4813 -1.0564 -0.2823 0
M  V30 50 Fe 4.5219 1.1012 -0.0346 0
M  V30 51 Ag 3.5348 3.2432 0.2379 0
M  V30 52 Ag 2.6899 0.0380 6.9457 0
M  V30 53 Fe 1.4033 -1.8030 7.6356 0
M  V30 54 Ag -0.5105 -3.1588 7.4980 0
M  V30 55 Ag 4.7309 -3.3250 -1.3821 0
M  V30 56 Fe 2.9965 -4.8688 -1.7714 0
M  V30 57 Ag 1.2355 -6.3024 -1.1497 0
M  V30 58 Ag 3.8068 0.9058 5.0615 0
M  V30 59 Fe 4.7706 -0.4815 3.3948 0
M  V30 60 Ag 5.5453 -1.9150 1.6695 0
M  V30 61 Ag -2.3572 -0.9803 1.1589 0
M  V30 62 Fe -2.4208 1.3218 0.5792 0
M  V30 63 Ag -2.4905 3.6173 -0.0251 0
M  V30 64 Ag -3.7881 3.5591 -2.0331 0
M  V30 65 Fe -3.9187 1.8089 -3.6268 0
M  V30 66 Ag -3.6870 0.1718 -5.3247 0
M  V30 67 Ag -1.7535 -2.6003 -0.7331 0
M  V30 68 Fe -1.6426 -1.8516 -2.9862 0
M  V30 69 Ag -1.5837 -1.0712 -5.2303 0
M  V30 70 Ag 0.1485 -6.7935 2.1086 0
M  V30 71 Fe -0.7778 -5.7819 4.0439 0
M  V30 72 Ag -1.6623 -4.5708 5.8814 0
M  V30 73 Ba -3.5307 -2.6837 2.2865 0
M  V30 74 Ga -3.2749 -2.6892 3.7421 0
M  V30 75 Ba -3.0835 -2.6884 5.2075 0
M  V30 76 Ba 1.0363 5.6451 0.6049 0
M  V30 77 Ga -0.3293 5.7751 0.0621 0
M  V30 78 Ba -1.6938 5.8880 -0.4871 0
M  V30 79 Ba 4.6645 -4.3055 0.7854 0
M  V30 80 Ga 3.4940 -5.2401 0.8175 0
M  V30 81 Ba 2.4088 -6.2674 0.9269 0
M  V30 82 Ba 0.5658 0.9652 6.3311 0
M  V30 83 Ga -0.4450 -0.1349 6.4657 0
M  V30 84 Ba -1.5251 -1.1607 6.6425 0
M  V30 85 Ba -2.2466 3.9567 -7.3180 0
M  V30 86 Ga -2.7500 2.5787 -7.4263 0
M  V30 87 Ba -3.1261 1.1566 -7.4176 0
M  V30 88 Ba -0.0243 3.1602 -7.1785 0
M  V30 89 Ga -0.4001 1.7325 -7.2654 0
M  V30 90 Ba -0.9022 0.3418 -7.2649 0
M  V30 91 Ba -1.8206 5.6566 -5.4851 0
M  V30 92 Ga -2.3460 5.7345 -4.1032 0
M  V30 93 Ba -2.8717 5.8129 -2.7214 0
M  V30 94 Ba -2.8805 -4.3655 0.4193 0
M  V30 95 Ga -1.9703 -5.5169 0.2578 0
M  V30 96 Ba -1.0018 -6.6226 0.1176 0
M  V30 97 Ba 1.6659 2.4671 4.6865 0
M  V30 98 Ga 1.7897 3.1692 3.3897 0
M  V30 99 Ba 1.7421 4.0162 2.1773 0
M  V30 END ATOM
M  V30 BEGIN BOND
M  V30 1 1 1 2
M  V30 2 1 1 3
M  V30 3 1 1 4
M  V30 4 1 1 5
M  V30 5 1 6 7
M  V30 6 1 6 8
M  V30 7 1 6 9
M  V30 8 1 6 10
M  V30 9 1 11 12
M  V30 10 1 11 13
M  V30 11 1 11 14
M  V30 12 1 11 15
M  V30 13 1 16 17
M  V30 14 1 16 18
M  V30 15 1 16 19
M  V30 16 1 16 20
M  V30 17 1 21 22
M  V30 18 1 21 23
M  V30 19 1 21 24
M  V30 20 1 21 25
M  V30 21 1 26 27
M  V30 22 1 26 28
M  V30 23 1 26 29
M  V30 24 1 26 30
M  V30 25 1 31 32
M  V30 26 1 31 33
M  V30 27 1 31 34
M  V30 28 1 31 35
M  V30 29 1 36 37
M  V30 30 1 36 38
M  V30 31 1 36 39
M  V30 32 1 36 40
M  V30 33 1 41 42
M  V30 34 1 41 43
M  V30 35 1 41 44
M  V30 36 1 41 45
M  V30 37 1 46 47
M  V30 38 1 47 48
M  V30 39 1 49 50
M  V30 40 1 50 51
M  V30 41 1 52 53
M  V30 42 1 53 54
M  V30 43 1 55 56
M  V30 44 1 56 57
M  V30 45 1 58 59
M  V30 46 1 59 60
M  V30 47 1 61 62
M  V30 48 1 62 63
M  V30 49 1 64 65
M  V30 50 1 65 66
M  V30 51 1 67 68
M  V30 52 1 68 69
M  V30 53 1 70 71
M  V30 54 1 71 72
M  V30 55 1 73 74
M  V30 56 1 74 75
M  V30 57 1 76 77
M  V30 58 1 77 78
M  V30 59 1 79 80
M  V30 60 1 80 81
M  V30 61 1 82 83
M  V30 62 1 83 84
M  V30 63 1 85 86
M  V30 64 1 86 87
M  V30 65 1 88 89
M  V30 66 1 89 90
M  V30 67 1 91 92
M  V30 68 1 92 93
M  V30 69 1 94 95
M  V30 70 1 95 96
M  V30 71 1 97 98
M  V30 72 1 98 99
M  V30 73 1 2 73
M  V30 74 1 3 67
M  V30 75 1 4 94
M  V30 76 1 5 61
M  V30 77 1 7 46
M  V30 78 1 8 88
M  V30 79 1 9 91
M  V30 80 1 10 85
M  V30 81 1 12 52
M  V30 82 1 13 97
M  V30 83 1 14 58
M  V30 84 1 15 82
M  V30 85 1 17 60
M  V30 86 1 18 79
M  V30 87 1 19 49
M  V30 88 1 20 55
M  V30 89 1 22 48
M  V30 90 1 23 99
M  V30 91 1 24 51
M  V30 92 1 25 76
M  V30 93 1 27 81
M  V30 94 1 28 70
M  V30 95 1 29 96
M  V30 96 1 30 57
M  V30 97 1 32 75
M  V30 98 1 33 72
M  V30 99 1 34 84
M  V30 100 1 35 54
M  V30 101 1 37 78
M  V30 102 1 38 64
M  V30 103 1 39 93
M  V30 104 1 40 63
M  V30 105 1 42 90
M  V30 106 1 43 69
M  V30 107 1 44 66
M  V30 108 1 45 87
M  V30 END BOND
M  V30 END CTAB
M  END

$$$$
