
     RDKit          3D

  0  0  0  0  0  0  0  0  0  0999 V3000
M  V30 BEGIN CTAB
M  V30 COUNTS 99 108 0 0 0
M  V30 BEGIN ATOM
M  V30 1 Pd -2.7175 -3.0204 2.5741 0
M  V30 2 Pb -3.6898 -2.9007 2.7714 0
M  V30 3 Pb -1.7398 -3.1369 2.3936 0
M  V30 4 Pb -2.5071 -3.0360 3.5524 0
M  V30 5 Pb -2.9463 -2.9898 1.5995 0
M  V30 6 Pd 5.7583 -3.7357 -4.3117 0
M  V30 7 Pb 5.6782 -2.7373 -4.3194 0
M  V30 8 Pb 5.8077 -4.7326 -4.2822 0
M  V30 9 Pb 5.1869 -3.7961 -5.1276 0
M  V30 10 Pb 6.2248 -3.7153 -3.4261 0
M  V30 11 Pd -2.5759 5.8674 -1.3309 0
M  V30 12 Pb -3.1696 5.0728 -1.4743 0
M  V30 13 Pb -2.1438 5.7806 -2.2297 0
M  V30 14 Pb -1.9599 6.6167 -1.0992 0
M  V30 15 Pb -2.9750 5.9359 -0.4192 0
M  V30 16 Pd 2.6960 5.5132 3.0694 0
M  V30 17 Pb 2.3750 6.3652 2.6639 0
M  V30 18 Pb 2.9126 4.6034 3.4275 0
M  V30 19 Pb 3.2261 5.3781 2.2329 0
M  V30 20 Pb 2.0714 5.6113 3.8422 0
M  V30 21 Pd 1.7037 3.1226 -4.0694 0
M  V30 22 Pb 2.4525 2.4568 -4.1176 0
M  V30 23 Pb 0.9877 3.8264 -4.0911 0
M  V30 24 Pb 2.2749 3.6378 -3.4278 0
M  V30 25 Pb 1.1241 2.5712 -4.6698 0
M  V30 26 Pd -1.4990 0.6986 6.4343 0
M  V30 27 Pb -0.5407 0.6782 6.1409 0
M  V30 28 Pb -2.4658 0.7583 6.6861 0
M  V30 29 Pb -1.5810 -0.2974 6.3724 0
M  V30 30 Pb -1.3969 1.6905 6.4981 0
M  V30 31 Pd -5.7105 1.2968 3.3982 0
M  V30 32 Pb -5.9360 0.3249 3.3447 0
M  V30 33 Pb -5.6549 1.2217 4.3944 0
M  V30 34 Pb -5.4725 2.2641 3.4360 0
M  V30 35 Pb -5.7037 1.3879 2.3987 0
M  V30 36 Pd -1.4024 -3.6663 -5.0610 0
M  V30 37 Pb -1.4678 -2.7507 -5.4542 0
M  V30 38 Pb -1.2562 -4.5441 -4.6066 0
M  V30 39 Pb -0.6473 -3.8477 -5.6891 0
M  V30 40 Pb -2.0941 -3.4513 -4.3733 0
M  V30 41 Pd 3.7723 -6.1168 -0.6989 0
M  V30 42 Pb 4.2357 -6.6381 -1.4122 0
M  V30 43 Pb 3.3028 -5.5449 -0.0261 0
M  V30 44 Pb 2.9015 -6.5206 -0.9742 0
M  V30 45 Pb 4.6334 -5.6341 -0.5308 0
M  V30 46 Ag 5.6126 -1.9886 -4.3223 0
M  V30 47 Fe 4.2813 -0.0203 -4.2370 0
M  V30 48 Ag 3.0662 2.0221 -4.1615 0
M  V30 49 Ag 0.6547 2.1607 -5.0871 0
M  V30 50 Fe -0.4263 0.0801 -5.4624 0
M  V30 51 Ag -1.4351 -2.0533 -5.7247 0
M  V30 52 Ag 3.5390 5.3155 1.5542 0
M  V30 53 Fe 3.1882 4.6476 -0.6992 0
M  V30 54 Ag 2.7388 3.9528 -2.9268 0
M  V30 55 Ag 2.9615 3.9119 3.7187 0
M  V30 56 Fe 1.6742 2.2412 4.8170 0
M  V30 57 Ag 0.1681 0.7529 5.8991 0
M  V30 58 Ag -3.2718 5.9295 0.2666 0
M  V30 59 Fe -4.2881 4.5616 1.9152 0
M  V30 60 Ag -5.2769 2.9825 3.3816 0
M  V30 61 Ag -3.6184 4.4685 -1.4655 0
M  V30 62 Fe -4.6858 2.9297 0.0018 0
M  V30 63 Ag -5.6479 1.5184 1.6583 0
M  V30 64 Ag 1.5623 5.5933 4.3904 0
M  V30 65 Fe 0.1024 4.1178 5.5411 0
M  V30 66 Ag -1.2448 2.4238 6.5147 0
M  V30 67 Ag -1.4725 7.1158 -0.8329 0
M  V30 68 Fe 0.3368 7.2502 0.6918 0
M  V30 69 Ag 2.0709 6.9237 2.2736 0
M  V30 70 Ag 4.6799 -3.8716 -5.6722 0
M  V30 71 Fe 2.3375 -3.9275 -6.0453 0
M  V30 72 Ag -0.0343 -3.9329 -6.1101 0
M  V30 73 Ag -3.1762 -2.9524 0.8848 0
M  V30 74 Fe -2.8707 -3.1261 -1.4647 0
M  V30 75 Ag -2.5692 -3.2986 -3.8148 0
M  V30 76 Ag -1.0947 -5.1579 -4.2089 0
M  V30 77 Fe 0.4990 -6.0896 -2.7173 0
M  V30 78 Ag 2.2501 -6.7543 -1.2596 0
M  V30 79 Ag -0.9967 -3.2182 2.3204 0
M  V30 80 Fe 0.9538 -4.1780 1.3620 0
M  V30 81 Ag 2.9519 -5.0888 0.4551 0
M  V30 82 Ba -4.4207 -2.8010 2.9031 0
M  V30 83 Ga -5.2683 -1.6136 3.1125 0
M  V30 84 Ba -6.0900 -0.4077 3.3189 0
M  V30 85 Ba 6.5031 -3.7591 -2.7295 0
M  V30 86 Ga 5.9499 -4.4780 -1.5631 0
M  V30 87 Ba 5.2743 -5.2430 -0.4947 0
M  V30 88 Ba 5.8140 -5.4769 -4.2059 0
M  V30 89 Ga 5.2331 -6.2958 -3.1308 0
M  V30 90 Ba 4.5974 -6.9591 -1.9819 0
M  V30 91 Ba -2.3363 -3.0493 4.2833 0
M  V30 92 Ga -1.9957 -2.0388 5.3045 0
M  V30 93 Ba -1.6529 -1.0446 6.3406 0
M  V30 94 Ba -3.1974 0.8101 6.8473 0
M  V30 95 Ga -4.4037 0.9840 6.0144 0
M  V30 96 Ba -5.5789 1.1584 5.1385 0
M  V30 97 Ba -1.8029 5.7451 -2.8980 0
M  V30 98 Ga -0.6668 5.0163 -3.5017 0
M  V30 99 Ba 0.4496 4.3438 -4.1995 0
M  V30 END ATOM
M  V30 BEGIN BOND
M  V30 1 1 1 2
M  V30 2 1 1 3
M  V30 3 1 1 4
M  V30 4 1 1 5
M  V30 5 1 6 7
M  V30 6 1 6 8
M  V30 7 1 6 9
M  V30 8 1 6 10
M  V30 9 1 11 12
M  V30 10 1 11 13
M  V30 11 1 11 14
M  V30 12 1 11 15
M  V30 13 1 16 17
M  V30 14 1 16 18
M  V30 15 1 16 19
M  V30 16 1 16 20
M  V30 17 1 21 22
M  V30 18 1 21 23
M  V30 19 1 21 24
M  V30 20 1 21 25
M  V30 21 1 26 27
M  V30 22 1 26 28
M  V30 23 1 26 29
M  V30 24 1 26 30
M  V30 25 1 31 32
M  V30 26 1 31 33
M  V30 27 1 31 34
M  V30 28 1 31 35
M  V30 29 1 36 37
M  V30 30 1 36 38
M  V30 31 1 36 39
M  V30 32 1 36 40
M  V30 33 1 41 42
M  V30 34 1 41 43
M  V30 35 1 41 44
M  V30 36 1 41 45
M  V30 37 1 46 47
M  V30 38 1 47 48
M  V30 39 1 49 50
M  V30 40 1 50 51
M  V30 41 1 52 53
M  V30 42 1 53 54
M  V30 43 1 55 56
M  V30 44 1 56 57
M  V30 45 1 58 59
M  V30 46 1 59 60
M  V30 47 1 61 62
M  V30 48 1 62 63
M  V30 49 1 64 65
M  V30 50 1 65 66
M  V30 51 1 67 68
M  V30 52 1 68 69
M  V30 53 1 70 71
M  V30 54 1 71 72
M  V30 55 1 73 74
M  V30 56 1 74 75
M  V30 57 1 76 77
M  V30 58 1 77 78
M  V30 59 1 79 80
M  V30 60 1 80 81
M  V30 61 1 82 83
M  V30 62 1 83 84
M  V30 63 1 85 86
M  V30 64 1 86 87
M  V30 65 1 88 89
M  V30 66 1 89 90
M  V30 67 1 91 92
M  V30 68 1 92 93
M  V30 69 1 94 95
M  V30 70 1 95 96
M  V30 71 1 97 98
M  V30 72 1 98 99
M  V30 73 1 2 82
M  V30 74 1 3 79
M  V30 75 1 4 91
M  V30 76 1 5 73
M  V30 77 1 7 46
M  V30 78 1 8 88
M  V30 79 1 9 70
M  V30 80 1 10 85
M  V30 81 1 12 61
M  V30 82 1 13 97
M  V30 83 1 14 67
M  V30 84 1 15 58
M  V30 85 1 17 69
M  V30 86 1 18 55
M  V30 87 1 19 52
M  V30 88 1 20 64
M  V30 89 1 22 48
M  V30 90 1 23 99
M  V30 91 1 24 54
M  V30 92 1 25 49
M  V30 93 1 27 57
M  V30 94 1 28 94
M  V30 95 1 29 93
M  V30 96 1 30 66
M  V30 97 1 32 84
M  V30 98 1 33 96
M  V30 99 1 34 60
M  V30 100 1 35 63
M  V30 101 1 37 51
M  V30 102 1 38 76
M  V30 103 1 39 72
M  V30 104 1 40 75
M  V30 105 1 42 90
M  V30 106 1 43 81
M  V30 107 1 44 78
M  V30 108 1 45 87
M  V30 END BOND
M  V30 END CTAB
M  END

$$$$
