
     RDKit          3D

  0  0  0  0  0  0  0  0  0  0999 V3000
M  V30 BEGIN CTAB
M  V30 COUNTS 99 108 0 0 0
M  V30 BEGIN ATOM
M  V30 1 Pd 0.1374 4.9067 3.1137 0
M  V30 2 Pb 0.9144 4.5673 2.5834 0
M  V30 3 Pb -0.0918 5.5826 2.3938 0
M  V30 4 Pb -0.6807 5.1753 3.6126 0
M  V30 5 Pb 0.3457 4.1352 3.7059 0
M  V30 6 Pd -3.6038 6.0518 -1.2512 0
M  V30 7 Pb -4.4649 5.7817 -1.6756 0
M  V30 8 Pb -2.7394 6.3260 -0.7946 0
M  V30 9 Pb -4.0645 6.1690 -0.3763 0
M  V30 10 Pb -3.1517 5.9348 -2.1399 0
M  V30 11 Pd 3.3640 -6.5074 0.1686 0
M  V30 12 Pb 3.6153 -6.4848 1.1509 0
M  V30 13 Pb 4.3199 -6.3349 -0.0505 0
M  V30 14 Pb 2.3964 -6.6419 0.3923 0
M  V30 15 Pb 3.1252 -6.5166 -0.8013 0
M  V30 16 Pd 2.4454 0.2963 3.8830 0
M  V30 17 Pb 3.3416 0.5118 4.2739 0
M  V30 18 Pb 2.5657 1.0126 3.1877 0
M  V30 19 Pb 2.3324 -0.3958 4.5924 0
M  V30 20 Pb 1.6206 -0.0615 3.4430 0
M  V30 21 Pd -5.7913 1.2649 -2.2851 0
M  V30 22 Pb -6.0618 2.2155 -2.4278 0
M  V30 23 Pb -5.5505 0.3041 -2.1188 0
M  V30 24 Pb -5.3213 1.5190 -1.4465 0
M  V30 25 Pb -6.0482 1.0953 -3.2306 0
M  V30 26 Pd 5.5961 -3.3245 4.5784 0
M  V30 27 Pb 4.8093 -3.2222 5.1808 0
M  V30 28 Pb 6.3510 -3.4268 3.9375 0
M  V30 29 Pb 5.2664 -4.2436 4.3090 0
M  V30 30 Pb 5.8453 -2.3754 4.7857 0
M  V30 31 Pd -1.0362 -4.9658 -2.3342 0
M  V30 32 Pb -1.8981 -4.5564 -2.0266 0
M  V30 33 Pb -0.9190 -5.4686 -1.4757 0
M  V30 34 Pb -0.1786 -5.3600 -2.6635 0
M  V30 35 Pb -1.1354 -4.4514 -3.1822 0
M  V30 36 Pd 1.1871 0.1767 -0.9565 0
M  V30 37 Pb 1.2608 0.6172 -1.8550 0
M  V30 38 Pb 0.4336 0.7701 -0.6794 0
M  V30 39 Pb 0.7596 -0.4496 -0.3092 0
M  V30 40 Pb 1.4489 0.1248 0.0073 0
M  V30 41 Pd -2.0915 2.0539 -5.1032 0
M  V30 42 Pb -1.1261 2.0753 -4.8323 0
M  V30 43 Pb -2.1628 3.0404 -4.9233 0
M  V30 44 Pb -1.9907 1.0819 -5.3045 0
M  V30 45 Pb -3.0510 1.9759 -5.3904 0
M  V30 46 Ag -5.3872 -0.4110 -1.9422 0
M  V30 47 Fe -3.9559 -2.3111 -1.9006 0
M  V30 48 Ag -2.5511 -4.2303 -1.8421 0
M  V30 49 Ag -1.3658 5.3856 3.8010 0
M  V30 50 Fe -3.1792 5.9158 2.3900 0
M  V30 51 Ag -4.2845 6.2319 0.3304 0
M  V30 52 Ag -4.8266 1.7278 -0.9306 0
M  V30 53 Fe -2.4992 1.5130 -0.5324 0
M  V30 54 Ag -0.1629 1.1279 -0.4018 0
M  V30 55 Ag 5.0308 -6.1222 -0.0769 0
M  V30 56 Fe 6.3392 -4.8506 1.4189 0
M  V30 57 Ag 6.7932 -3.6012 3.3678 0
M  V30 58 Ag -1.2233 -4.0342 -3.7953 0
M  V30 59 Fe -1.5639 -1.8573 -4.6725 0
M  V30 60 Ag -1.9044 0.3550 -5.4563 0
M  V30 61 Ag 0.5835 3.4643 3.9196 0
M  V30 62 Fe 1.1530 1.5915 2.5865 0
M  V30 63 Ag 1.5461 0.1466 0.7501 0
M  V30 64 Ba 1.3328 0.9857 -2.5083 0
M  V30 65 Ga 0.4462 1.5128 -3.5688 0
M  V30 66 Ba -0.3940 2.0600 -4.6565 0
M  V30 67 Ba 2.2865 -0.9226 5.1205 0
M  V30 68 Ga 3.1961 -2.0375 5.4171 0
M  V30 69 Ba 4.1964 -3.0996 5.5874 0
M  V30 70 Ba 3.8190 -6.5093 1.8866 0
M  V30 71 Ga 4.4129 -5.6655 2.9634 0
M  V30 72 Ba 4.9958 -4.9325 4.1242 0
M  V30 73 Ba -2.8465 5.8674 -2.8259 0
M  V30 74 Ga -2.5192 4.7913 -3.7894 0
M  V30 75 Ba -2.1582 3.7883 -4.8173 0
M  V30 76 Ba 2.9260 -6.5156 -1.5233 0
M  V30 77 Ga 1.7045 -6.0904 -2.2302 0
M  V30 78 Ba 0.4676 -5.6550 -2.9031 0
M  V30 79 Ba 1.4767 4.2278 2.2198 0
M  V30 80 Ga 2.0947 2.9003 2.4326 0
M  V30 81 Ba 2.6786 1.5639 2.6835 0
M  V30 82 Ba -0.2382 6.0703 1.8244 0
M  V30 83 Ga -1.2091 6.2707 0.7080 0
M  V30 84 Ba -2.1099 6.5802 -0.4418 0
M  V30 85 Ba -6.0984 1.0872 -3.9742 0
M  V30 86 Ga -4.9774 1.4479 -4.8635 0
M  V30 87 Ba -3.7605 1.8334 -5.6055 0
M  V30 88 Ba -5.1069 5.5660 -1.9911 0
M  V30 89 Ga -5.7015 4.2489 -2.2712 0
M  V30 90 Ba -6.2794 2.9226 -2.5428 0
M  V30 91 Ba 1.6640 -6.7236 0.5430 0
M  V30 92 Ga 0.4237 -6.2940 -0.1363 0
M  V30 93 Ba -0.7982 -5.8503 -0.8394 0
M  V30 94 Ba 1.0571 -0.4279 3.1065 0
M  V30 95 Ga 0.6944 -0.6558 1.6964 0
M  V30 96 Ba 0.4213 -0.8035 0.2558 0
M  V30 97 Ba 4.0390 0.5728 4.5479 0
M  V30 98 Ga 5.0444 -0.4907 4.7628 0
M  V30 99 Ba 5.9555 -1.6442 4.9292 0
M  V30 END ATOM
M  V30 BEGIN BOND
M  V30 1 1 1 2
M  V30 2 1 1 3
M  V30 3 1 1 4
M  V30 4 1 1 5
M  V30 5 1 6 7
M  V30 6 1 6 8
M  V30 7 1 6 9
M  V30 8 1 6 10
M  V30 9 1 11 12
M  V30 10 1 11 13
M  V30 11 1 11 14
M  V30 12 1 11 15
M  V30 13 1 16 17
M  V30 14 1 16 18
M  V30 15 1 16 19
M  V30 16 1 16 20
M  V30 17 1 21 22
M  V30 18 1 21 23
M  V30 19 1 21 24
M  V30 20 1 21 25
M  V30 21 1 26 27
M  V30 22 1 26 28
M  V30 23 1 26 29
M  V30 24 1 26 30
M  V30 25 1 31 32
M  V30 26 1 31 33
M  V30 27 1 31 34
M  V30 28 1 31 35
M  V30 29 1 36 37
M  V30 30 1 36 38
M  V30 31 1 36 39
M  V30 32 1 36 40
M  V30 33 1 41 42
M  V30 34 1 41 43
M  V30 35 1 41 44
M  V30 36 1 41 45
M  V30 37 1 46 47
M  V30 38 1 47 48
M  V30 39 1 49 50
M  V30 40 1 50 51
M  V30 41 1 52 53
M  V30 42 1 53 54
M  V30 43 1 55 56
M  V30 44 1 56 57
M  V30 45 1 58 59
M  V30 46 1 59 60
M  V30 47 1 61 62
M  V30 48 1 62 63
M  V30 49 1 64 65
M  V30 50 1 65 66
M  V30 51 1 67 68
M  V30 52 1 68 69
M  V30 53 1 70 71
M  V30 54 1 71 72
M  V30 55 1 73 74
M  V30 56 1 74 75
M  V30 57 1 76 77
M  V30 58 1 77 78
M  V30 59 1 79 80
M  V30 60 1 80 81
M  V30 61 1 82 83
M  V30 62 1 83 84
M  V30 63 1 85 86
M  V30 64 1 86 87
M  V30 65 1 88 89
M  V30 66 1 89 90
M  V30 67 1 91 92
M  V30 68 1 92 93
M  V30 69 1 94 95
M  V30 70 1 95 96
M  V30 71 1 97 98
M  V30 72 1 98 99
M  V30 73 1 2 79
M  V30 74 1 3 82
M  V30 75 1 4 49
M  V30 76 1 5 61
M  V30 77 1 7 88
M  V30 78 1 8 84
M  V30 79 1 9 51
M  V30 80 1 10 73
M  V30 81 1 12 70
M  V30 82 1 13 55
M  V30 83 1 14 91
M  V30 84 1 15 76
M  V30 85 1 17 97
M  V30 86 1 18 81
M  V30 87 1 19 67
M  V30 88 1 20 94
M  V30 89 1 22 90
M  V30 90 1 23 46
M  V30 91 1 24 52
M  V30 92 1 25 85
M  V30 93 1 27 69
M  V30 94 1 28 57
M  V30 95 1 29 72
M  V30 96 1 30 99
M  V30 97 1 32 48
M  V30 98 1 33 93
M  V30 99 1 34 78
M  V30 100 1 35 58
M  V30 101 1 37 64
M  V30 102 1 38 54
M  V30 103 1 39 96
M  V30 104 1 40 63
M  V30 105 1 42 66
M  V30 106 1 43 75
M  V30 107 1 44 60
M  V30 108 1 45 87
M  V30 END BOND
M  V30 END CTAB
M  END

$$$$
