
     RDKit          3D

  0  0  0  0  0  0  0  0  0  0999 V3000
M  V30 BEGIN CTAB
M  V30 COUNTS 99 108 0 0 0
M  V30 BEGIN ATOM
M  V30 1 Pd 4.7210 -0.1108 0.9352 0
M  V30 2 Pb 4.4863 -0.9233 0.3998 0
M  V30 3 Pb 5.1201 0.5827 1.5455 0
M  V30 4 Pb 4.2164 -0.4515 1.7307 0
M  V30 5 Pb 5.1672 0.2295 0.1000 0
M  V30 6 Pd 0.0487 7.2828 1.8231 0
M  V30 7 Pb -0.8009 6.9636 1.4083 0
M  V30 8 Pb -0.2293 6.9614 2.7250 0
M  V30 9 Pb 0.3765 7.5087 0.9070 0
M  V30 10 Pb 0.9335 7.5518 2.2292 0
M  V30 11 Pd -3.9909 -5.1795 -4.6561 0
M  V30 12 Pb -3.4713 -5.9543 -4.2536 0
M  V30 13 Pb -4.3928 -4.3293 -4.9884 0
M  V30 14 Pb -4.6532 -5.1945 -3.9061 0
M  V30 15 Pb -3.3489 -5.1558 -5.4143 0
M  V30 16 Pd -5.9142 -2.6545 2.2859 0
M  V30 17 Pb -6.2671 -3.1866 1.5174 0
M  V30 18 Pb -5.6661 -3.5020 2.7472 0
M  V30 19 Pb -6.1593 -1.8107 1.8080 0
M  V30 20 Pb -5.4703 -2.1462 3.0281 0
M  V30 21 Pd -3.6323 2.2106 -2.9717 0
M  V30 22 Pb -3.4329 2.9859 -2.3717 0
M  V30 23 Pb -3.9191 1.4740 -3.5850 0
M  V30 24 Pb -4.4417 2.0426 -2.4112 0
M  V30 25 Pb -2.7674 2.2990 -3.4736 0
M  V30 26 Pd -1.3782 -3.7560 4.2789 0
M  V30 27 Pb -2.1909 -4.3333 4.2539 0
M  V30 28 Pb -0.8469 -4.5123 3.9028 0
M  V30 29 Pb -0.5485 -3.1962 4.3202 0
M  V30 30 Pb -1.9584 -2.9918 4.5704 0
M  V30 31 Pd 1.1871 -6.3986 -2.3638 0
M  V30 32 Pb 2.0173 -5.8860 -2.1534 0
M  V30 33 Pb 1.0596 -6.5686 -1.3872 0
M  V30 34 Pb 1.3440 -6.2414 -3.3324 0
M  V30 35 Pb 0.2884 -6.8189 -2.5883 0
M  V30 36 Pd 3.9896 3.6759 -3.1063 0
M  V30 37 Pb 3.2136 3.2570 -3.5832 0
M  V30 38 Pb 4.7302 4.1207 -2.6129 0
M  V30 39 Pb 3.4960 4.5446 -3.1097 0
M  V30 40 Pb 4.5000 2.8187 -2.9982 0
M  V30 41 Pd 4.8944 5.0027 3.7898 0
M  V30 42 Pb 4.2477 4.7798 4.5153 0
M  V30 43 Pb 5.3056 4.0913 3.7918 0
M  V30 44 Pb 5.4889 5.2279 3.0251 0
M  V30 45 Pb 4.4395 5.8995 3.6988 0
M  V30 46 Ag -1.4112 6.7084 1.0593 0
M  V30 47 Fe -2.3598 5.1187 -0.4281 0
M  V30 48 Ag -3.3926 3.5731 -1.9054 0
M  V30 49 Ag 4.4450 -1.5633 0.0079 0
M  V30 50 Fe 3.4671 -3.4928 -0.9732 0
M  V30 51 Ag 2.6097 -5.4537 -2.0040 0
M  V30 52 Ag -2.1066 2.2914 -3.8367 0
M  V30 53 Fe 0.2447 2.6504 -3.8917 0
M  V30 54 Ag 2.5953 3.0145 -3.9380 0
M  V30 55 Ag -6.3402 -1.1956 1.4185 0
M  V30 56 Fe -5.7370 0.3777 -0.2545 0
M  V30 57 Ag -5.0022 1.8760 -1.9435 0
M  V30 58 Ag -2.7724 -5.1655 -5.8775 0
M  V30 59 Fe -0.4953 -5.5854 -5.4604 0
M  V30 60 Ag 1.3214 -6.1075 -4.0595 0
M  V30 61 Ag -0.2528 6.6447 3.3974 0
M  V30 62 Fe 1.4594 5.5439 4.5940 0
M  V30 63 Ag 3.6459 4.7259 4.9488 0
M  V30 64 Ag -5.1647 -5.1814 -3.3568 0
M  V30 65 Fe -5.8564 -4.4116 -1.2191 0
M  V30 66 Ag -6.4716 -3.5989 0.9260 0
M  V30 67 Ag 0.6330 7.5893 0.2081 0
M  V30 68 Fe 1.8668 6.4970 -1.5002 0
M  V30 69 Ag 3.1312 5.1937 -3.0287 0
M  V30 70 Ag 3.8255 -0.6703 2.3346 0
M  V30 71 Fe 1.9515 -1.7446 3.3267 0
M  V30 72 Ag 0.0939 -2.8078 4.3610 0
M  V30 73 Ag 5.2461 4.4452 -2.1858 0
M  V30 74 Fe 5.7333 4.9858 0.0662 0
M  V30 75 Ag 5.8720 5.3528 2.4001 0
M  V30 76 Ag -0.4862 -5.0713 3.5610 0
M  V30 77 Fe 0.2781 -5.9207 1.4808 0
M  V30 78 Ag 0.9999 -6.6810 -0.6486 0
M  V30 79 Ag -4.6152 -3.6453 -5.1924 0
M  V30 80 Fe -4.4347 -1.3396 -4.6560 0
M  V30 81 Ag -4.1883 0.9398 -4.0387 0
M  V30 82 Ba -5.4455 -4.1250 3.0937 0
M  V30 83 Ga -4.1454 -4.4847 3.6768 0
M  V30 84 Ba -2.8103 -4.7504 4.2304 0
M  V30 85 Ba 1.5901 7.7589 2.5511 0
M  V30 86 Ga 2.8324 7.1270 3.0715 0
M  V30 87 Ba 4.1035 6.5754 3.6132 0
M  V30 88 Ba -3.0658 -6.5269 -3.9453 0
M  V30 89 Ga -1.7113 -6.7779 -3.3611 0
M  V30 90 Ba -0.3887 -7.1361 -2.7602 0
M  V30 91 Ba -5.0872 -1.8046 3.5799 0
M  V30 92 Ga -3.7678 -2.0895 4.1873 0
M  V30 93 Ba -2.4410 -2.4396 4.7422 0
M  V30 94 Ba 5.4553 0.3965 -0.5796 0
M  V30 95 Ga 5.1830 1.3248 -1.7035 0
M  V30 96 Ba 4.9515 2.2317 -2.8537 0
M  V30 97 Ba 5.4774 0.9711 2.0886 0
M  V30 98 Ga 5.5020 2.2245 2.8753 0
M  V30 99 Ba 5.6437 3.4241 3.7313 0
M  V30 END ATOM
M  V30 BEGIN BOND
M  V30 1 1 1 2
M  V30 2 1 1 3
M  V30 3 1 1 4
M  V30 4 1 1 5
M  V30 5 1 6 7
M  V30 6 1 6 8
M  V30 7 1 6 9
M  V30 8 1 6 10
M  V30 9 1 11 12
M  V30 10 1 11 13
M  V30 11 1 11 14
M  V30 12 1 11 15
M  V30 13 1 16 17
M  V30 14 1 16 18
M  V30 15 1 16 19
M  V30 16 1 16 20
M  V30 17 1 21 22
M  V30 18 1 21 23
M  V30 19 1 21 24
M  V30 20 1 21 25
M  V30 21 1 26 27
M  V30 22 1 26 28
M  V30 23 1 26 29
M  V30 24 1 26 30
M  V30 25 1 31 32
M  V30 26 1 31 33
M  V30 27 1 31 34
M  V30 28 1 31 35
M  V30 29 1 36 37
M  V30 30 1 36 38
M  V30 31 1 36 39
M  V30 32 1 36 40
M  V30 33 1 41 42
M  V30 34 1 41 43
M  V30 35 1 41 44
M  V30 36 1 41 45
M  V30 37 1 46 47
M  V30 38 1 47 48
M  V30 39 1 49 50
M  V30 40 1 50 51
M  V30 41 1 52 53
M  V30 42 1 53 54
M  V30 43 1 55 56
M  V30 44 1 56 57
M  V30 45 1 58 59
M  V30 46 1 59 60
M  V30 47 1 61 62
M  V30 48 1 62 63
M  V30 49 1 64 65
M  V30 50 1 65 66
M  V30 51 1 67 68
M  V30 52 1 68 69
M  V30 53 1 70 71
M  V30 54 1 71 72
M  V30 55 1 73 74
M  V30 56 1 74 75
M  V30 57 1 76 77
M  V30 58 1 77 78
M  V30 59 1 79 80
M  V30 60 1 80 81
M  V30 61 1 82 83
M  V30 62 1 83 84
M  V30 63 1 85 86
M  V30 64 1 86 87
M  V30 65 1 88 89
M  V30 66 1 89 90
M  V30 67 1 91 92
M  V30 68 1 92 93
M  V30 69 1 94 95
M  V30 70 1 95 96
M  V30 71 1 97 98
M  V30 72 1 98 99
M  V30 73 1 2 49
M  V30 74 1 3 97
M  V30 75 1 4 70
M  V30 76 1 5 94
M  V30 77 1 7 46
M  V30 78 1 8 61
M  V30 79 1 9 67
M  V30 80 1 10 85
M  V30 81 1 12 88
M  V30 82 1 13 79
M  V30 83 1 14 64
M  V30 84 1 15 58
M  V30 85 1 17 66
M  V30 86 1 18 82
M  V30 87 1 19 55
M  V30 88 1 20 91
M  V30 89 1 22 48
M  V30 90 1 23 81
M  V30 91 1 24 57
M  V30 92 1 25 52
M  V30 93 1 27 84
M  V30 94 1 28 76
M  V30 95 1 29 72
M  V30 96 1 30 93
M  V30 97 1 32 51
M  V30 98 1 33 78
M  V30 99 1 34 60
M  V30 100 1 35 90
M  V30 101 1 37 54
M  V30 102 1 38 73
M  V30 103 1 39 69
M  V30 104 1 40 96
M  V30 105 1 42 63
M  V30 106 1 43 99
M  V30 107 1 44 75
M  V30 108 1 45 87
M  V30 END BOND
M  V30 END CTAB
M  END

$$$$
