
     RDKit          3D

  0  0  0  0  0  0  0  0  0  0999 V3000
M  V30 BEGIN CTAB
M  V30 COUNTS 99 108 0 0 0
M  V30 BEGIN ATOM
M  V30 1 Pd -1.1273 -1.2943 -0.3607 0
M  V30 2 Pb -0.8700 -0.3551 -0.5909 0
M  V30 3 Pb -1.6323 -1.3705 -1.2159 0
M  V30 4 Pb -0.7821 -1.1679 0.5642 0
M  V30 5 Pb -1.2914 -2.2630 -0.1724 0
M  V30 6 Pd -5.4572 0.7356 4.5567 0
M  V30 7 Pb -4.4819 0.5305 4.6082 0
M  V30 8 Pb -5.5757 -0.0170 3.8800 0
M  V30 9 Pb -5.3242 1.5815 5.0667 0
M  V30 10 Pb -6.4249 0.9517 4.4864 0
M  V30 11 Pd -5.2575 8.3878 3.3216 0
M  V30 12 Pb -6.2304 8.4950 3.5253 0
M  V30 13 Pb -4.4979 8.1802 2.6754 0
M  V30 14 Pb -5.2269 7.4887 3.7623 0
M  V30 15 Pb -5.2323 9.3441 3.0485 0
M  V30 16 Pd 9.8750 -2.2103 -0.1883 0
M  V30 17 Pb 10.7534 -2.6180 -0.4214 0
M  V30 18 Pb 9.0560 -1.6802 0.0366 0
M  V30 19 Pb 9.6741 -2.1240 -1.1641 0
M  V30 20 Pb 9.8652 -2.7301 0.6860 0
M  V30 21 Pd 2.9889 -6.5960 -1.8075 0
M  V30 22 Pb 2.1135 -6.7583 -1.3569 0
M  V30 23 Pb 3.4909 -6.9283 -1.0098 0
M  V30 24 Pb 3.8291 -6.2437 -2.2110 0
M  V30 25 Pb 2.4948 -6.1220 -2.5372 0
M  V30 26 Pd -6.1058 7.7563 -1.7274 0
M  V30 27 Pb -6.1818 6.7781 -1.9300 0
M  V30 28 Pb -5.1709 7.6789 -1.3305 0
M  V30 29 Pb -6.0330 8.7483 -1.7118 0
M  V30 30 Pb -7.0960 7.8503 -1.6266 0
M  V30 31 Pd 8.3074 -7.0944 -0.0349 0
M  V30 32 Pb 7.3578 -7.0800 0.2825 0
M  V30 33 Pb 9.2474 -7.2593 -0.3189 0
M  V30 34 Pb 8.0374 -7.1051 -0.9973 0
M  V30 35 Pb 8.6418 -6.6176 0.7997 0
M  V30 36 Pd 3.2321 0.0735 -2.6259 0
M  V30 37 Pb 2.4869 0.6764 -2.3341 0
M  V30 38 Pb 2.6236 -0.4419 -3.2273 0
M  V30 39 Pb 3.8532 0.4271 -1.9301 0
M  V30 40 Pb 3.9465 -0.5781 -2.8794 0
M  V30 41 Pd -6.2760 0.0217 -1.0633 0
M  V30 42 Pb -6.3721 0.7293 -1.7588 0
M  V30 43 Pb -5.4882 -0.3584 -1.5584 0
M  V30 44 Pb -6.1279 -0.5604 -0.2420 0
M  V30 45 Pb -7.1100 0.3616 -0.6441 0
M  V30 46 Ag 8.4875 -1.2034 0.1573 0
M  V30 47 Fe 6.4217 -0.2657 -0.5469 0
M  V30 48 Ag 4.3544 0.5475 -1.3876 0
M  V30 49 Ag -6.9573 8.5275 3.3355 0
M  V30 50 Fe -7.8141 8.2905 1.1279 0
M  V30 51 Ag -7.7239 7.9565 -1.2266 0
M  V30 52 Ag 2.1612 -5.6560 -3.0217 0
M  V30 53 Fe 2.0415 -3.3334 -3.5012 0
M  V30 54 Ag 2.2434 -0.9697 -3.5982 0
M  V30 55 Ag -6.2569 6.0813 -2.2044 0
M  V30 56 Fe -6.3403 3.7071 -2.1880 0
M  V30 57 Ag -6.4283 1.3330 -2.1959 0
M  V30 58 Ag -0.6810 -1.0320 1.2892 0
M  V30 59 Fe -2.0429 -0.3370 3.0987 0
M  V30 60 Ag -3.7538 0.3636 4.5808 0
M  V30 61 Ag -7.1128 1.0984 4.2609 0
M  V30 62 Fe -7.9417 1.0045 2.0628 0
M  V30 63 Ag -7.6842 0.5939 -0.2388 0
M  V30 64 Ag 9.4240 -2.3774 -1.8261 0
M  V30 65 Fe 8.5784 -4.5640 -2.2292 0
M  V30 66 Ag 7.9628 -6.7944 -1.6774 0
M  V30 67 Ag 11.3357 -3.0403 -0.5955 0
M  V30 68 Fe 11.3449 -5.3789 -0.7534 0
M  V30 69 Ag 9.9615 -7.2560 -0.5140 0
M  V30 70 Ag -1.3278 -3.0055 -0.0723 0
M  V30 71 Fe -0.0959 -4.9970 -0.4603 0
M  V30 72 Ag 1.4424 -6.7120 -1.0304 0
M  V30 73 Ag -5.2376 2.2684 5.3478 0
M  V30 74 Fe -5.2123 4.5716 4.7661 0
M  V30 75 Ag -5.1836 6.8788 4.2010 0
M  V30 76 Ag 4.3691 -5.8150 -2.4956 0
M  V30 77 Fe 4.6362 -3.4887 -2.8682 0
M  V30 78 Ag 4.4264 -1.1322 -3.0332 0
M  V30 79 Ag -5.2337 10.0153 2.7381 0
M  V30 80 Fe -5.5591 10.5131 0.4729 0
M  V30 81 Ag -5.9614 9.4737 -1.5869 0
M  V30 82 Ba -2.0915 -1.3991 -1.8041 0
M  V30 83 Ga -3.5156 -1.0204 -1.9053 0
M  V30 84 Ba -4.9398 -0.6395 -1.9953 0
M  V30 85 Ba -4.0403 8.0228 2.0706 0
M  V30 86 Ga -4.2798 7.8363 0.5909 0
M  V30 87 Ba -4.5370 7.6527 -0.8861 0
M  V30 88 Ba -5.6471 -0.5701 3.3500 0
M  V30 89 Ga -5.8413 -0.7205 1.8710 0
M  V30 90 Ba -6.0333 -0.9652 0.4043 0
M  V30 91 Ba 9.8084 -3.2503 1.2547 0
M  V30 92 Ga 9.3602 -4.6898 1.3083 0
M  V30 93 Ba 8.9074 -6.1286 1.3365 0
M  V30 94 Ba 3.8598 -7.0990 -0.3797 0
M  V30 95 Ga 5.2700 -7.1250 0.0563 0
M  V30 96 Ba 6.6606 -7.1656 0.5502 0
M  V30 97 Ba -0.6228 0.3260 -0.7877 0
M  V30 98 Ga 0.6308 0.7510 -1.4433 0
M  V30 99 Ba 1.9077 1.0956 -2.1012 0
M  V30 END ATOM
M  V30 BEGIN BOND
M  V30 1 1 1 2
M  V30 2 1 1 3
M  V30 3 1 1 4
M  V30 4 1 1 5
M  V30 5 1 6 7
M  V30 6 1 6 8
M  V30 7 1 6 9
M  V30 8 1 6 10
M  V30 9 1 11 12
M  V30 10 1 11 13
M  V30 11 1 11 14
M  V30 12 1 11 15
M  V30 13 1 16 17
M  V30 14 1 16 18
M  V30 15 1 16 19
M  V30 16 1 16 20
M  V30 17 1 21 22
M  V30 18 1 21 23
M  V30 19 1 21 24
M  V30 20 1 21 25
M  V30 21 1 26 27
M  V30 22 1 26 28
M  V30 23 1 26 29
M  V30 24 1 26 30
M  V30 25 1 31 32
M  V30 26 1 31 33
M  V30 27 1 31 34
M  V30 28 1 31 35
M  V30 29 1 36 37
M  V30 30 1 36 38
M  V30 31 1 36 39
M  V30 32 1 36 40
M  V30 33 1 41 42
M  V30 34 1 41 43
M  V30 35 1 41 44
M  V30 36 1 41 45
M  V30 37 1 46 47
M  V30 38 1 47 48
M  V30 39 1 49 50
M  V30 40 1 50 51
M  V30 41 1 52 53
M  V30 42 1 53 54
M  V30 43 1 55 56
M  V30 44 1 56 57
M  V30 45 1 58 59
M  V30 46 1 59 60
M  V30 47 1 61 62
M  V30 48 1 62 63
M  V30 49 1 64 65
M  V30 50 1 65 66
M  V30 51 1 67 68
M  V30 52 1 68 69
M  V30 53 1 70 71
M  V30 54 1 71 72
M  V30 55 1 73 74
M  V30 56 1 74 75
M  V30 57 1 76 77
M  V30 58 1 77 78
M  V30 59 1 79 80
M  V30 60 1 80 81
M  V30 61 1 82 83
M  V30 62 1 83 84
M  V30 63 1 85 86
M  V30 64 1 86 87
M  V30 65 1 88 89
M  V30 66 1 89 90
M  V30 67 1 91 92
M  V30 68 1 92 93
M  V30 69 1 94 95
M  V30 70 1 95 96
M  V30 71 1 97 98
M  V30 72 1 98 99
M  V30 73 1 2 97
M  V30 74 1 3 82
M  V30 75 1 4 58
M  V30 76 1 5 70
M  V30 77 1 7 60
M  V30 78 1 8 88
M  V30 79 1 9 73
M  V30 80 1 10 61
M  V30 81 1 12 49
M  V30 82 1 13 85
M  V30 83 1 14 75
M  V30 84 1 15 79
M  V30 85 1 17 67
M  V30 86 1 18 46
M  V30 87 1 19 64
M  V30 88 1 20 91
M  V30 89 1 22 72
M  V30 90 1 23 94
M  V30 91 1 24 76
M  V30 92 1 25 52
M  V30 93 1 27 55
M  V30 94 1 28 87
M  V30 95 1 29 81
M  V30 96 1 30 51
M  V30 97 1 32 96
M  V30 98 1 33 69
M  V30 99 1 34 66
M  V30 100 1 35 93
M  V30 101 1 37 99
M  V30 102 1 38 54
M  V30 103 1 39 48
M  V30 104 1 40 78
M  V30 105 1 42 57
M  V30 106 1 43 84
M  V30 107 1 44 90
M  V30 108 1 45 63
M  V30 END BOND
M  V30 END CTAB
M  END

$$$$
