
     RDKit          3D

  0  0  0  0  0  0  0  0  0  0999 V3000
M  V30 BEGIN CTAB
M  V30 COUNTS 99 108 0 0 0
M  V30 BEGIN ATOM
M  V30 1 Pd -2.7373 -3.8140 -2.1029 0
M  V30 2 Pb -1.8839 -4.3070 -1.9325 0
M  V30 3 Pb -3.6399 -3.4264 -2.2994 0
M  V30 4 Pb -2.9030 -3.6884 -1.1203 0
M  V30 5 Pb -2.5354 -3.8580 -3.0832 0
M  V30 6 Pd -2.8836 4.3267 -0.1501 0
M  V30 7 Pb -2.4255 3.5044 0.1900 0
M  V30 8 Pb -3.4202 5.0164 -0.6325 0
M  V30 9 Pb -2.1299 4.4680 -0.7871 0
M  V30 10 Pb -3.7177 4.0915 0.3474 0
M  V30 11 Pd 6.4567 0.8339 0.4669 0
M  V30 12 Pb 6.5481 -0.0838 0.9040 0
M  V30 13 Pb 6.2592 1.6856 -0.0177 0
M  V30 14 Pb 6.2895 1.2777 1.3511 0
M  V30 15 Pb 6.6744 0.4278 -0.4119 0
M  V30 16 Pd 1.8328 2.3683 6.2313 0
M  V30 17 Pb 2.7624 2.6443 5.9924 0
M  V30 18 Pb 0.9192 1.9337 6.3481 0
M  V30 19 Pb 1.5182 2.9111 5.4563 0
M  V30 20 Pb 2.1776 1.8445 7.0023 0
M  V30 21 Pd 1.8405 2.1555 -1.1307 0
M  V30 22 Pb 1.0012 1.7390 -0.7840 0
M  V30 23 Pb 2.7099 2.5885 -1.3755 0
M  V30 24 Pb 1.6744 2.8602 -0.4467 0
M  V30 25 Pb 1.9950 1.4057 -1.7805 0
M  V30 26 Pd -0.6538 -2.7357 5.4804 0
M  V30 27 Pb -0.9151 -1.7931 5.7625 0
M  V30 28 Pb -0.2428 -3.5852 5.1609 0
M  V30 29 Pb -1.2811 -2.7317 4.6959 0
M  V30 30 Pb -0.0708 -2.7959 6.2825 0
M  V30 31 Pd 4.4939 -4.7244 0.3476 0
M  V30 32 Pb 3.7859 -5.2349 -0.1333 0
M  V30 33 Pb 4.0024 -4.9460 1.1888 0
M  V30 34 Pb 4.9558 -4.5534 -0.5139 0
M  V30 35 Pb 5.1406 -4.0884 0.8151 0
M  V30 36 Pd -0.7815 -0.1117 -5.3177 0
M  V30 37 Pb 0.0710 -0.3541 -4.8526 0
M  V30 38 Pb -1.6399 0.1513 -5.7639 0
M  V30 39 Pb -0.5785 0.8396 -5.0898 0
M  V30 40 Pb -1.0044 -1.0752 -5.4825 0
M  V30 41 Pd -7.6652 1.8480 -3.7485 0
M  V30 42 Pb -7.5303 2.8365 -3.8021 0
M  V30 43 Pb -7.6624 0.8580 -3.6231 0
M  V30 44 Pb -7.2339 1.7175 -4.6397 0
M  V30 45 Pb -7.8995 1.9804 -2.7865 0
M  V30 46 Ag -1.2704 -4.7325 -1.8547 0
M  V30 47 Fe 0.9629 -5.1580 -1.1720 0
M  V30 48 Ag 3.1979 -5.5457 -0.4727 0
M  V30 49 Ag 1.3568 3.3221 4.8536 0
M  V30 50 Fe 1.3888 3.4304 2.4856 0
M  V30 51 Ag 1.5046 3.3139 0.1206 0
M  V30 52 Ag 6.7937 0.0269 -1.0206 0
M  V30 53 Fe 6.2500 -2.1955 -1.5617 0
M  V30 54 Ag 5.3116 -4.3032 -1.1104 0
M  V30 55 Ag -4.4029 3.8803 0.5631 0
M  V30 56 Fe -6.3281 2.9882 -0.4987 0
M  V30 57 Ag -7.9010 2.1277 -2.0528 0
M  V30 58 Ag -3.9024 5.3843 -1.0693 0
M  V30 59 Fe -5.6891 4.7498 -2.4938 0
M  V30 60 Ag -7.3242 3.5518 -3.7251 0
M  V30 61 Ag 2.3526 1.3366 7.5095 0
M  V30 62 Fe 1.6309 -0.8962 7.6513 0
M  V30 63 Ag 0.3826 -2.7263 6.8628 0
M  V30 64 Ag 6.1906 1.6369 2.0061 0
M  V30 65 Fe 4.8648 2.2383 3.8852 0
M  V30 66 Ag 3.4483 2.7705 5.7182 0
M  V30 67 Ag -1.6332 4.4788 -1.3447 0
M  V30 68 Fe -0.9117 3.1186 -3.1493 0
M  V30 69 Ag -0.4212 1.5277 -4.8395 0
M  V30 70 Ag -3.0431 -3.5369 -0.3945 0
M  V30 71 Fe -2.3617 -3.1660 1.8555 0
M  V30 72 Ag -1.7781 -2.7791 4.1302 0
M  V30 73 Ag -2.2960 0.3411 -6.0800 0
M  V30 74 Fe -4.5658 0.9750 -5.7743 0
M  V30 75 Ag -6.7948 1.5963 -5.2345 0
M  V30 76 Ag -4.3390 -3.1964 -2.4543 0
M  V30 77 Fe -5.9708 -1.5522 -2.9803 0
M  V30 78 Ag -7.5694 0.1250 -3.5040 0
M  V30 79 Ag 0.1732 -4.1537 4.9129 0
M  V30 80 Fe 1.8711 -4.7254 3.3568 0
M  V30 81 Ag 3.5707 -5.1673 1.7605 0
M  V30 82 Ba -2.1224 2.8353 0.3495 0
M  V30 83 Ga -0.8715 2.1483 -0.0299 0
M  V30 84 Ba 0.3908 1.4918 -0.4250 0
M  V30 85 Ba 2.1177 0.8237 -2.2441 0
M  V30 86 Ga 1.4140 0.1690 -3.3678 0
M  V30 87 Ba 0.7160 -0.4900 -4.4926 0
M  V30 88 Ba 0.2369 1.5845 6.4110 0
M  V30 89 Ga -0.3779 0.2360 6.1846 0
M  V30 90 Ba -1.0765 -1.0757 5.9868 0
M  V30 91 Ba 6.6185 -0.7778 1.2314 0
M  V30 92 Ga 6.0788 -2.1752 1.1468 0
M  V30 93 Ba 5.6259 -3.6053 1.1683 0
M  V30 94 Ba -2.3505 -3.8603 -3.8121 0
M  V30 95 Ga -1.7759 -2.8389 -4.7134 0
M  V30 96 Ba -1.2008 -1.7943 -5.5874 0
M  V30 97 Ba 6.0523 2.2738 -0.4345 0
M  V30 98 Ga 4.7304 2.6377 -0.9829 0
M  V30 99 Ba 3.3729 2.9249 -1.4881 0
M  V30 END ATOM
M  V30 BEGIN BOND
M  V30 1 1 1 2
M  V30 2 1 1 3
M  V30 3 1 1 4
M  V30 4 1 1 5
M  V30 5 1 6 7
M  V30 6 1 6 8
M  V30 7 1 6 9
M  V30 8 1 6 10
M  V30 9 1 11 12
M  V30 10 1 11 13
M  V30 11 1 11 14
M  V30 12 1 11 15
M  V30 13 1 16 17
M  V30 14 1 16 18
M  V30 15 1 16 19
M  V30 16 1 16 20
M  V30 17 1 21 22
M  V30 18 1 21 23
M  V30 19 1 21 24
M  V30 20 1 21 25
M  V30 21 1 26 27
M  V30 22 1 26 28
M  V30 23 1 26 29
M  V30 24 1 26 30
M  V30 25 1 31 32
M  V30 26 1 31 33
M  V30 27 1 31 34
M  V30 28 1 31 35
M  V30 29 1 36 37
M  V30 30 1 36 38
M  V30 31 1 36 39
M  V30 32 1 36 40
M  V30 33 1 41 42
M  V30 34 1 41 43
M  V30 35 1 41 44
M  V30 36 1 41 45
M  V30 37 1 46 47
M  V30 38 1 47 48
M  V30 39 1 49 50
M  V30 40 1 50 51
M  V30 41 1 52 53
M  V30 42 1 53 54
M  V30 43 1 55 56
M  V30 44 1 56 57
M  V30 45 1 58 59
M  V30 46 1 59 60
M  V30 47 1 61 62
M  V30 48 1 62 63
M  V30 49 1 64 65
M  V30 50 1 65 66
M  V30 51 1 67 68
M  V30 52 1 68 69
M  V30 53 1 70 71
M  V30 54 1 71 72
M  V30 55 1 73 74
M  V30 56 1 74 75
M  V30 57 1 76 77
M  V30 58 1 77 78
M  V30 59 1 79 80
M  V30 60 1 80 81
M  V30 61 1 82 83
M  V30 62 1 83 84
M  V30 63 1 85 86
M  V30 64 1 86 87
M  V30 65 1 88 89
M  V30 66 1 89 90
M  V30 67 1 91 92
M  V30 68 1 92 93
M  V30 69 1 94 95
M  V30 70 1 95 96
M  V30 71 1 97 98
M  V30 72 1 98 99
M  V30 73 1 2 46
M  V30 74 1 3 76
M  V30 75 1 4 70
M  V30 76 1 5 94
M  V30 77 1 7 82
M  V30 78 1 8 58
M  V30 79 1 9 67
M  V30 80 1 10 55
M  V30 81 1 12 91
M  V30 82 1 13 97
M  V30 83 1 14 64
M  V30 84 1 15 52
M  V30 85 1 17 66
M  V30 86 1 18 88
M  V30 87 1 19 49
M  V30 88 1 20 61
M  V30 89 1 22 84
M  V30 90 1 23 99
M  V30 91 1 24 51
M  V30 92 1 25 85
M  V30 93 1 27 90
M  V30 94 1 28 79
M  V30 95 1 29 72
M  V30 96 1 30 63
M  V30 97 1 32 48
M  V30 98 1 33 81
M  V30 99 1 34 54
M  V30 100 1 35 93
M  V30 101 1 37 87
M  V30 102 1 38 73
M  V30 103 1 39 69
M  V30 104 1 40 96
M  V30 105 1 42 60
M  V30 106 1 43 78
M  V30 107 1 44 75
M  V30 108 1 45 57
M  V30 END BOND
M  V30 END CTAB
M  END

$$$$
