
     RDKit          3D

  0  0  0  0  0  0  0  0  0  0999 V3000
M  V30 BEGIN CTAB
M  V30 COUNTS 99 108 0 0 0
M  V30 BEGIN ATOM
M  V30 1 Pd 0.0032 -4.7298 5.3849 0
M  V30 2 Pb -0.8929 -4.3167 5.5343 0
M  V30 3 Pb -0.2903 -5.6075 5.7620 0
M  V30 4 Pb 0.8831 -5.1490 5.1644 0
M  V30 5 Pb 0.2542 -3.8924 4.9017 0
M  V30 6 Pd 0.0879 -8.4232 2.4422 0
M  V30 7 Pb -0.8154 -8.6668 2.0947 0
M  V30 8 Pb 0.9624 -8.1024 2.8017 0
M  V30 9 Pb -0.2165 -8.5655 3.3848 0
M  V30 10 Pb 0.3655 -8.1960 1.5081 0
M  V30 11 Pd -0.3619 2.4745 -4.7642 0
M  V30 12 Pb -1.0895 3.0847 -4.4504 0
M  V30 13 Pb 0.3401 1.7975 -4.9816 0
M  V30 14 Pb 0.2525 3.2294 -5.0043 0
M  V30 15 Pb -0.9925 1.7369 -4.5505 0
M  V30 16 Pd 3.5214 8.6413 -2.6073 0
M  V30 17 Pb 3.6169 9.0584 -1.7064 0
M  V30 18 Pb 2.5550 8.8738 -2.5862 0
M  V30 19 Pb 4.4405 8.2661 -2.5087 0
M  V30 20 Pb 3.3676 8.1131 -3.4416 0
M  V30 21 Pd -4.1579 -1.0220 0.8689 0
M  V30 22 Pb -3.4745 -0.3185 1.0836 0
M  V30 23 Pb -4.7613 -1.7843 0.6407 0
M  V30 24 Pb -4.0308 -0.8727 -0.1059 0
M  V30 25 Pb -4.2356 -1.2450 1.8395 0
M  V30 26 Pd -2.6065 -5.6295 -0.8817 0
M  V30 27 Pb -2.8624 -6.4743 -0.4108 0
M  V30 28 Pb -2.3600 -4.7925 -1.3762 0
M  V30 29 Pb -1.6901 -6.0100 -1.0163 0
M  V30 30 Pb -3.5248 -5.2616 -0.7223 0
M  V30 31 Pd -1.4971 4.3471 0.0882 0
M  V30 32 Pb -1.6004 3.4161 0.4526 0
M  V30 33 Pb -0.8937 4.5395 0.8685 0
M  V30 34 Pb -2.0451 4.1896 -0.7351 0
M  V30 35 Pb -1.3985 5.2806 -0.2510 0
M  V30 36 Pd 1.1910 -1.1918 -1.5174 0
M  V30 37 Pb 2.0063 -0.6880 -1.2376 0
M  V30 38 Pb 1.4253 -1.0362 -2.4803 0
M  V30 39 Pb 0.9949 -1.2953 -0.5410 0
M  V30 40 Pb 0.3445 -1.6511 -1.8005 0
M  V30 41 Pd 3.8648 5.6110 0.9669 0
M  V30 42 Pb 4.6543 5.8246 0.3863 0
M  V30 43 Pb 3.7714 6.5906 1.1460 0
M  V30 44 Pb 3.0427 5.4176 1.5117 0
M  V30 45 Pb 3.9913 4.6398 0.7659 0
M  V30 46 Ag 0.7139 3.7899 -5.2019 0
M  V30 47 Fe 1.9728 5.7306 -4.6572 0
M  V30 48 Ag 3.1991 7.6627 -4.0168 0
M  V30 49 Ag 2.5882 -0.2849 -0.9943 0
M  V30 50 Fe 3.3694 1.8119 -0.2010 0
M  V30 51 Ag 4.1175 3.9217 0.5902 0
M  V30 52 Ag 0.3785 -3.2758 4.4947 0
M  V30 53 Fe 0.6557 -2.3155 2.3393 0
M  V30 54 Ag 0.9329 -1.3024 0.2083 0
M  V30 55 Ag -1.5011 1.2253 -4.3697 0
M  V30 56 Fe -2.7257 0.1806 -2.6329 0
M  V30 57 Ag -3.9086 -0.8128 -0.8380 0
M  V30 58 Ag -1.5493 -3.9587 5.5505 0
M  V30 59 Fe -3.0032 -2.6891 4.1707 0
M  V30 60 Ag -4.2376 -1.4666 2.5546 0
M  V30 61 Ag 1.8215 8.9193 -2.4704 0
M  V30 62 Fe 0.1213 7.5588 -1.5357 0
M  V30 63 Ag -1.3266 5.9643 -0.5462 0
M  V30 64 Ba 0.5335 -7.9827 0.8083 0
M  V30 65 Ga -0.2093 -7.1584 -0.1660 0
M  V30 66 Ba -1.0123 -6.3270 -1.0849 0
M  V30 67 Ba -0.4914 -6.3038 5.9524 0
M  V30 68 Ga -0.4918 -7.5025 5.0930 0
M  V30 69 Ba -0.4319 -8.5944 4.1033 0
M  V30 70 Ba -0.4362 4.6644 1.4558 0
M  V30 71 Ga 0.9967 4.9783 1.6647 0
M  V30 72 Ba 2.4216 5.2921 1.9222 0
M  V30 73 Ba 5.0750 7.9132 -2.3290 0
M  V30 74 Ga 5.2333 6.9523 -1.2202 0
M  V30 75 Ba 5.2156 6.0197 -0.0762 0
M  V30 76 Ba 1.5053 -5.5090 4.9538 0
M  V30 77 Ga 1.6306 -6.6598 4.0435 0
M  V30 78 Ba 1.5713 -7.8026 3.1168 0
M  V30 79 Ba -5.1581 -2.3870 0.4408 0
M  V30 80 Ga -4.7172 -3.6970 -0.0757 0
M  V30 81 Ba -4.2111 -4.9851 -0.5878 0
M  V30 82 Ba -1.4984 -8.7876 1.8147 0
M  V30 83 Ga -2.2992 -7.9814 0.8763 0
M  V30 84 Ba -3.0341 -7.1181 -0.0654 0
M  V30 85 Ba -1.6852 3.4362 -4.1577 0
M  V30 86 Ga -2.0597 3.8156 -2.7790 0
M  V30 87 Ba -2.4123 4.1852 -1.3919 0
M  V30 88 Ba -2.2190 -4.1684 -1.7728 0
M  V30 89 Ga -1.2180 -3.0836 -1.8656 0
M  V30 90 Ba -0.2973 -1.9437 -2.0660 0
M  V30 91 Ba -2.9106 0.1449 1.2715 0
M  V30 92 Ga -2.3315 1.4736 0.9715 0
M  V30 93 Ba -1.6046 2.7531 0.8137 0
M  V30 94 Ba 3.6515 9.2695 -0.9905 0
M  V30 95 Ga 3.6971 8.3751 0.1783 0
M  V30 96 Ba 3.7407 7.3362 1.2212 0
M  V30 97 Ba 0.8326 1.2412 -5.0811 0
M  V30 98 Ga 1.2485 0.1617 -4.1626 0
M  V30 99 Ba 1.6186 -0.8900 -3.1935 0
M  V30 END ATOM
M  V30 BEGIN BOND
M  V30 1 1 1 2
M  V30 2 1 1 3
M  V30 3 1 1 4
M  V30 4 1 1 5
M  V30 5 1 6 7
M  V30 6 1 6 8
M  V30 7 1 6 9
M  V30 8 1 6 10
M  V30 9 1 11 12
M  V30 10 1 11 13
M  V30 11 1 11 14
M  V30 12 1 11 15
M  V30 13 1 16 17
M  V30 14 1 16 18
M  V30 15 1 16 19
M  V30 16 1 16 20
M  V30 17 1 21 22
M  V30 18 1 21 23
M  V30 19 1 21 24
M  V30 20 1 21 25
M  V30 21 1 26 27
M  V30 22 1 26 28
M  V30 23 1 26 29
M  V30 24 1 26 30
M  V30 25 1 31 32
M  V30 26 1 31 33
M  V30 27 1 31 34
M  V30 28 1 31 35
M  V30 29 1 36 37
M  V30 30 1 36 38
M  V30 31 1 36 39
M  V30 32 1 36 40
M  V30 33 1 41 42
M  V30 34 1 41 43
M  V30 35 1 41 44
M  V30 36 1 41 45
M  V30 37 1 46 47
M  V30 38 1 47 48
M  V30 39 1 49 50
M  V30 40 1 50 51
M  V30 41 1 52 53
M  V30 42 1 53 54
M  V30 43 1 55 56
M  V30 44 1 56 57
M  V30 45 1 58 59
M  V30 46 1 59 60
M  V30 47 1 61 62
M  V30 48 1 62 63
M  V30 49 1 64 65
M  V30 50 1 65 66
M  V30 51 1 67 68
M  V30 52 1 68 69
M  V30 53 1 70 71
M  V30 54 1 71 72
M  V30 55 1 73 74
M  V30 56 1 74 75
M  V30 57 1 76 77
M  V30 58 1 77 78
M  V30 59 1 79 80
M  V30 60 1 80 81
M  V30 61 1 82 83
M  V30 62 1 83 84
M  V30 63 1 85 86
M  V30 64 1 86 87
M  V30 65 1 88 89
M  V30 66 1 89 90
M  V30 67 1 91 92
M  V30 68 1 92 93
M  V30 69 1 94 95
M  V30 70 1 95 96
M  V30 71 1 97 98
M  V30 72 1 98 99
M  V30 73 1 2 58
M  V30 74 1 3 67
M  V30 75 1 4 76
M  V30 76 1 5 52
M  V30 77 1 7 82
M  V30 78 1 8 78
M  V30 79 1 9 69
M  V30 80 1 10 64
M  V30 81 1 12 85
M  V30 82 1 13 97
M  V30 83 1 14 46
M  V30 84 1 15 55
M  V30 85 1 17 94
M  V30 86 1 18 61
M  V30 87 1 19 73
M  V30 88 1 20 48
M  V30 89 1 22 91
M  V30 90 1 23 79
M  V30 91 1 24 57
M  V30 92 1 25 60
M  V30 93 1 27 84
M  V30 94 1 28 88
M  V30 95 1 29 66
M  V30 96 1 30 81
M  V30 97 1 32 93
M  V30 98 1 33 70
M  V30 99 1 34 87
M  V30 100 1 35 63
M  V30 101 1 37 49
M  V30 102 1 38 99
M  V30 103 1 39 54
M  V30 104 1 40 90
M  V30 105 1 42 75
M  V30 106 1 43 96
M  V30 107 1 44 72
M  V30 108 1 45 51
M  V30 END BOND
M  V30 END CTAB
M  END

$$$$
