
     RDKit          3D

  0  0  0  0  0  0  0  0  0  0999 V3000
M  V30 BEGIN CTAB
M  V30 COUNTS 99 108 0 0 0
M  V30 BEGIN ATOM
M  V30 1 Pd -2.2342 -0.6795 5.3511 0
M  V30 2 Pb -2.5111 -0.4995 4.4056 0
M  V30 3 Pb -1.9054 -0.8594 6.2799 0
M  V30 4 Pb -2.2142 0.2959 5.5632 0
M  V30 5 Pb -2.1682 -1.6437 5.1060 0
M  V30 6 Pd 1.8591 1.2361 7.0088 0
M  V30 7 Pb 2.3418 1.7197 6.2822 0
M  V30 8 Pb 1.0440 1.7961 6.8607 0
M  V30 9 Pb 1.3253 0.6740 7.6387 0
M  V30 10 Pb 2.6631 0.6500 7.1195 0
M  V30 11 Pd 2.7292 2.0847 -3.9126 0
M  V30 12 Pb 2.2964 2.9709 -4.0597 0
M  V30 13 Pb 3.1384 1.1913 -3.7295 0
M  V30 14 Pb 2.5410 1.8072 -4.8573 0
M  V30 15 Pb 2.8824 2.3667 -2.9630 0
M  V30 16 Pd -1.3200 -0.2228 -7.4325 0
M  V30 17 Pb -1.0566 -1.1345 -7.0771 0
M  V30 18 Pb -1.7115 0.6875 -7.5504 0
M  V30 19 Pb -2.2074 -0.6011 -7.6777 0
M  V30 20 Pb -0.3966 0.1492 -7.2913 0
M  V30 21 Pd 0.0111 1.5399 0.7691 0
M  V30 22 Pb -0.5267 2.3742 0.9107 0
M  V30 23 Pb 0.5473 0.7077 0.6126 0
M  V30 24 Pb 0.8198 2.0578 0.4838 0
M  V30 25 Pb -0.8017 1.0221 1.0453 0
M  V30 26 Pd 4.0335 -1.2836 3.3088 0
M  V30 27 Pb 3.9295 -0.2906 3.3833 0
M  V30 28 Pb 4.1703 -2.2727 3.2249 0
M  V30 29 Pb 4.3933 -1.2875 4.2416 0
M  V30 30 Pb 3.5858 -1.2870 2.4125 0
M  V30 31 Pd -3.6144 4.1322 -2.1840 0
M  V30 32 Pb -3.3218 4.2649 -1.2358 0
M  V30 33 Pb -4.2065 3.3750 -1.8994 0
M  V30 34 Pb -2.9247 4.7815 -2.4898 0
M  V30 35 Pb -3.8019 3.9884 -3.1574 0
M  V30 36 Pd 1.6356 -4.0162 0.2181 0
M  V30 37 Pb 0.9696 -3.4000 -0.2000 0
M  V30 38 Pb 2.3017 -3.6947 -0.4528 0
M  V30 39 Pb 0.9666 -4.2905 0.9066 0
M  V30 40 Pb 2.3449 -4.4935 0.7306 0
M  V30 41 Pd -3.1162 -2.8956 -3.0567 0
M  V30 42 Pb -3.8673 -3.2080 -3.6316 0
M  V30 43 Pb -2.4520 -3.1476 -3.7824 0
M  V30 44 Pb -3.7686 -2.4345 -2.4554 0
M  V30 45 Pb -2.3729 -2.5323 -2.5001 0
M  V30 46 Ag -4.5680 2.7520 -1.6808 0
M  V30 47 Fe -4.5296 0.3773 -1.7868 0
M  V30 48 Ag -4.2212 -1.9602 -2.0900 0
M  V30 49 Ag -2.8563 -0.9491 -7.7666 0
M  V30 50 Fe -4.1030 -2.3101 -6.3090 0
M  V30 51 Ag -4.3415 -3.3015 -4.1913 0
M  V30 52 Ag -2.0609 -2.3343 4.8425 0
M  V30 53 Fe -0.8517 -3.5218 3.1834 0
M  V30 54 Ag 0.4715 -4.4464 1.4456 0
M  V30 55 Ag 1.9265 3.6190 -4.0866 0
M  V30 56 Fe -0.1499 4.5977 -3.5007 0
M  V30 57 Ag -2.3386 5.1411 -2.7758 0
M  V30 58 Ag -2.1047 1.3219 -7.4868 0
M  V30 59 Fe -3.0234 2.7131 -5.7935 0
M  V30 60 Ag -3.8191 3.9187 -3.9064 0
M  V30 61 Ag 3.4167 0.5145 -3.5682 0
M  V30 62 Fe 3.1686 -1.4776 -2.3015 0
M  V30 63 Ag 2.7628 -3.3929 -0.9594 0
M  V30 64 Ba 2.4150 1.5993 -5.5693 0
M  V30 65 Ga 1.3214 1.0050 -6.3702 0
M  V30 66 Ba 0.3095 0.4176 -7.2762 0
M  V30 67 Ba 0.5310 -2.8529 -0.4646 0
M  V30 68 Ga -0.6626 -2.6072 -1.2917 0
M  V30 69 Ba -1.8352 -2.2131 -2.0913 0
M  V30 70 Ba 3.2722 0.2115 7.1487 0
M  V30 71 Ga 3.9756 -0.5426 6.0930 0
M  V30 72 Ba 4.5989 -1.2571 4.9621 0
M  V30 73 Ba -1.6177 -0.9502 6.9682 0
M  V30 74 Ga -0.3894 -0.3944 7.5677 0
M  V30 75 Ba 0.8644 0.2314 8.0294 0
M  V30 76 Ba -2.1143 1.0160 5.7400 0
M  V30 77 Ga -0.8903 1.6639 6.2422 0
M  V30 78 Ba 0.4037 2.1658 6.7365 0
M  V30 79 Ba 0.9823 0.1128 0.4616 0
M  V30 80 Ga 2.0975 -0.5961 1.1238 0
M  V30 81 Ba 3.2146 -1.3258 1.7596 0
M  V30 82 Ba 2.6913 2.0023 5.6848 0
M  V30 83 Ga 3.2985 1.2788 4.5533 0
M  V30 84 Ba 3.8730 0.4528 3.4758 0
M  V30 85 Ba 4.2652 -3.0109 3.1182 0
M  V30 86 Ga 3.6190 -3.9447 2.1780 0
M  V30 87 Ba 2.8809 -4.7462 1.1853 0
M  V30 88 Ba -0.9652 2.9748 1.0275 0
M  V30 89 Ga -2.0089 3.6750 0.2496 0
M  V30 90 Ba -3.0495 4.3638 -0.5424 0
M  V30 91 Ba 2.9725 2.6135 -2.2579 0
M  V30 92 Ga 2.2083 2.5085 -0.9969 0
M  V30 93 Ba 1.4495 2.4076 0.2676 0
M  V30 94 Ba -2.7009 -0.4086 3.6841 0
M  V30 95 Ga -2.0539 0.1402 2.4739 0
M  V30 96 Ba -1.4419 0.6780 1.2408 0
M  V30 97 Ba -0.9246 -1.8139 -6.7503 0
M  V30 98 Ga -1.4453 -2.5366 -5.5471 0
M  V30 99 Ba -1.9520 -3.2777 -4.3490 0
M  V30 END ATOM
M  V30 BEGIN BOND
M  V30 1 1 1 2
M  V30 2 1 1 3
M  V30 3 1 1 4
M  V30 4 1 1 5
M  V30 5 1 6 7
M  V30 6 1 6 8
M  V30 7 1 6 9
M  V30 8 1 6 10
M  V30 9 1 11 12
M  V30 10 1 11 13
M  V30 11 1 11 14
M  V30 12 1 11 15
M  V30 13 1 16 17
M  V30 14 1 16 18
M  V30 15 1 16 19
M  V30 16 1 16 20
M  V30 17 1 21 22
M  V30 18 1 21 23
M  V30 19 1 21 24
M  V30 20 1 21 25
M  V30 21 1 26 27
M  V30 22 1 26 28
M  V30 23 1 26 29
M  V30 24 1 26 30
M  V30 25 1 31 32
M  V30 26 1 31 33
M  V30 27 1 31 34
M  V30 28 1 31 35
M  V30 29 1 36 37
M  V30 30 1 36 38
M  V30 31 1 36 39
M  V30 32 1 36 40
M  V30 33 1 41 42
M  V30 34 1 41 43
M  V30 35 1 41 44
M  V30 36 1 41 45
M  V30 37 1 46 47
M  V30 38 1 47 48
M  V30 39 1 49 50
M  V30 40 1 50 51
M  V30 41 1 52 53
M  V30 42 1 53 54
M  V30 43 1 55 56
M  V30 44 1 56 57
M  V30 45 1 58 59
M  V30 46 1 59 60
M  V30 47 1 61 62
M  V30 48 1 62 63
M  V30 49 1 64 65
M  V30 50 1 65 66
M  V30 51 1 67 68
M  V30 52 1 68 69
M  V30 53 1 70 71
M  V30 54 1 71 72
M  V30 55 1 73 74
M  V30 56 1 74 75
M  V30 57 1 76 77
M  V30 58 1 77 78
M  V30 59 1 79 80
M  V30 60 1 80 81
M  V30 61 1 82 83
M  V30 62 1 83 84
M  V30 63 1 85 86
M  V30 64 1 86 87
M  V30 65 1 88 89
M  V30 66 1 89 90
M  V30 67 1 91 92
M  V30 68 1 92 93
M  V30 69 1 94 95
M  V30 70 1 95 96
M  V30 71 1 97 98
M  V30 72 1 98 99
M  V30 73 1 2 94
M  V30 74 1 3 73
M  V30 75 1 4 76
M  V30 76 1 5 52
M  V30 77 1 7 82
M  V30 78 1 8 78
M  V30 79 1 9 75
M  V30 80 1 10 70
M  V30 81 1 12 55
M  V30 82 1 13 61
M  V30 83 1 14 64
M  V30 84 1 15 91
M  V30 85 1 17 97
M  V30 86 1 18 58
M  V30 87 1 19 49
M  V30 88 1 20 66
M  V30 89 1 22 88
M  V30 90 1 23 79
M  V30 91 1 24 93
M  V30 92 1 25 96
M  V30 93 1 27 84
M  V30 94 1 28 85
M  V30 95 1 29 72
M  V30 96 1 30 81
M  V30 97 1 32 90
M  V30 98 1 33 46
M  V30 99 1 34 57
M  V30 100 1 35 60
M  V30 101 1 37 67
M  V30 102 1 38 63
M  V30 103 1 39 54
M  V30 104 1 40 87
M  V30 105 1 42 51
M  V30 106 1 43 99
M  V30 107 1 44 48
M  V30 108 1 45 69
M  V30 END BOND
M  V30 END CTAB
M  END

$$$$
