
     RDKit          3D

  0  0  0  0  0  0  0  0  0  0999 V3000
M  V30 BEGIN CTAB
M  V30 COUNTS 99 108 0 0 0
M  V30 BEGIN ATOM
M  V30 1 Pd 0.1589 1.1062 4.5163 0
M  V30 2 Pb -0.8170 0.9993 4.3126 0
M  V30 3 Pb 1.0738 1.2690 4.9008 0
M  V30 4 Pb 0.1332 2.0731 4.2662 0
M  V30 5 Pb 0.2032 0.1095 4.6066 0
M  V30 6 Pd 7.5662 -1.8054 0.0166 0
M  V30 7 Pb 7.1880 -1.8820 -0.9002 0
M  V30 8 Pb 7.8912 -1.6912 0.9662 0
M  V30 9 Pb 7.4086 -2.7909 0.1320 0
M  V30 10 Pb 7.6853 -0.8224 -0.1005 0
M  V30 11 Pd -6.4730 -1.1929 -3.0880 0
M  V30 12 Pb -7.0371 -0.3696 -2.9825 0
M  V30 13 Pb -5.8727 -1.9854 -3.1373 0
M  V30 14 Pb -6.1022 -0.9130 -3.9763 0
M  V30 15 Pb -6.8158 -1.5112 -2.2076 0
M  V30 16 Pd -2.2877 1.7622 -4.8777 0
M  V30 17 Pb -2.8804 1.0874 -5.3177 0
M  V30 18 Pb -1.7423 2.4855 -4.3980 0
M  V30 19 Pb -1.4970 1.1425 -4.9008 0
M  V30 20 Pb -3.0387 2.3985 -4.9856 0
M  V30 21 Pd 0.9240 -3.1264 -3.3520 0
M  V30 22 Pb 1.8953 -2.9238 -3.4447 0
M  V30 23 Pb -0.0420 -3.3706 -3.3120 0
M  V30 24 Pb 0.7357 -2.3011 -3.8922 0
M  V30 25 Pb 1.1396 -3.9471 -2.8160 0
M  V30 26 Pd -2.1945 6.1115 -0.8306 0
M  V30 27 Pb -1.6156 5.6455 -1.5304 0
M  V30 28 Pb -2.8783 6.3781 -0.1589 0
M  V30 29 Pb -1.5789 5.8832 -0.0759 0
M  V30 30 Pb -2.8486 6.3632 -1.5309 0
M  V30 31 Pd -7.0342 1.4783 1.2216 0
M  V30 32 Pb -6.4643 1.2605 2.0134 0
M  V30 33 Pb -6.8545 2.4498 1.3720 0
M  V30 34 Pb -7.2198 0.5084 1.0878 0
M  V30 35 Pb -7.5096 1.6649 0.3578 0
M  V30 36 Pd 3.3865 -4.9902 1.5395 0
M  V30 37 Pb 2.9182 -5.2518 0.6899 0
M  V30 38 Pb 3.8184 -4.7727 2.4097 0
M  V30 39 Pb 4.2866 -5.1673 1.1331 0
M  V30 40 Pb 2.5357 -4.7445 2.0052 0
M  V30 41 Pd 6.0391 0.7128 4.9393 0
M  V30 42 Pb 6.8064 0.2274 4.4936 0
M  V30 43 Pb 5.2309 1.1474 5.3362 0
M  V30 44 Pb 5.8016 -0.1574 5.3545 0
M  V30 45 Pb 6.2754 1.5320 4.4241 0
M  V30 46 Ag 6.8452 -1.9471 -1.5580 0
M  V30 47 Fe 4.7603 -2.3564 -2.6072 0
M  V30 48 Ag 2.6215 -2.7770 -3.5368 0
M  V30 49 Ag -1.5641 0.9088 4.2828 0
M  V30 50 Fe -3.7591 1.0218 3.3780 0
M  V30 51 Ag -5.9937 1.0830 2.5697 0
M  V30 52 Ag 7.7223 -0.0814 -0.0459 0
M  V30 53 Fe 7.2146 1.4058 1.7153 0
M  V30 54 Ag 6.4969 1.9913 3.8854 0
M  V30 55 Ag -3.5326 2.9439 -5.0333 0
M  V30 56 Fe -3.8548 4.9243 -3.8126 0
M  V30 57 Ag -3.3433 6.4173 -2.0740 0
M  V30 58 Ag 0.1591 2.7725 3.9983 0
M  V30 59 Fe -0.4994 4.2787 2.2838 0
M  V30 60 Ag -1.1813 5.7479 0.5464 0
M  V30 61 Ag 0.1764 -0.6408 4.5542 0
M  V30 62 Fe 1.0306 -2.6131 3.5371 0
M  V30 63 Ag 1.9841 -4.5036 2.4552 0
M  V30 64 Ag 4.0733 -4.5808 3.0837 0
M  V30 65 Fe 4.8713 -2.8222 4.4532 0
M  V30 66 Ag 5.6481 -0.8624 5.5297 0
M  V30 67 Ag -3.4623 6.4156 0.3016 0
M  V30 68 Fe -5.1622 4.9257 1.0163 0
M  V30 69 Ag -6.6812 3.1684 1.4938 0
M  V30 70 Ag -5.3785 -2.5428 -3.1628 0
M  V30 71 Fe -3.0762 -3.1039 -3.2303 0
M  V30 72 Ag -0.7565 -3.5894 -3.2959 0
M  V30 73 Ba 1.2933 -4.5790 -2.4354 0
M  V30 74 Ga 1.9418 -4.9865 -1.1688 0
M  V30 75 Ba 2.5672 -5.5010 0.0701 0
M  V30 76 Ba -0.8773 0.7267 -5.0126 0
M  V30 77 Ga -0.1707 -0.5049 -4.5952 0
M  V30 78 Ba 0.6835 -1.6816 -4.3189 0
M  V30 79 Ba -1.3091 3.0341 -4.0644 0
M  V30 80 Ga -1.3279 4.1362 -3.0424 0
M  V30 81 Ba -1.1997 5.2637 -2.0564 0
M  V30 82 Ba -7.0603 -1.7347 -1.5382 0
M  V30 83 Ga -7.2265 -1.0139 -0.2683 0
M  V30 84 Ba -7.3603 -0.2127 0.9564 0
M  V30 85 Ba 8.1499 -1.5651 1.6701 0
M  V30 86 Ga 7.7202 -0.8563 2.9071 0
M  V30 87 Ba 7.3745 -0.1748 4.1850 0
M  V30 88 Ba -7.4557 0.2401 -2.8356 0
M  V30 89 Ga -7.6621 1.0250 -1.5966 0
M  V30 90 Ba -7.8200 1.7630 -0.3222 0
M  V30 91 Ba -5.7826 -0.7837 -4.6456 0
M  V30 92 Ga -4.5866 -0.0709 -5.1407 0
M  V30 93 Ba -3.3924 0.6426 -5.6393 0
M  V30 94 Ba 7.2733 -3.5327 0.1696 0
M  V30 95 Ga 6.1244 -4.3975 0.5239 0
M  V30 96 Ba 4.9860 -5.2774 0.8748 0
M  V30 97 Ba 1.6853 1.4967 5.2832 0
M  V30 98 Ga 3.1582 1.4257 5.3958 0
M  V30 99 Ba 4.6174 1.4557 5.6377 0
M  V30 END ATOM
M  V30 BEGIN BOND
M  V30 1 1 1 2
M  V30 2 1 1 3
M  V30 3 1 1 4
M  V30 4 1 1 5
M  V30 5 1 6 7
M  V30 6 1 6 8
M  V30 7 1 6 9
M  V30 8 1 6 10
M  V30 9 1 11 12
M  V30 10 1 11 13
M  V30 11 1 11 14
M  V30 12 1 11 15
M  V30 13 1 16 17
M  V30 14 1 16 18
M  V30 15 1 16 19
M  V30 16 1 16 20
M  V30 17 1 21 22
M  V30 18 1 21 23
M  V30 19 1 21 24
M  V30 20 1 21 25
M  V30 21 1 26 27
M  V30 22 1 26 28
M  V30 23 1 26 29
M  V30 24 1 26 30
M  V30 25 1 31 32
M  V30 26 1 31 33
M  V30 27 1 31 34
M  V30 28 1 31 35
M  V30 29 1 36 37
M  V30 30 1 36 38
M  V30 31 1 36 39
M  V30 32 1 36 40
M  V30 33 1 41 42
M  V30 34 1 41 43
M  V30 35 1 41 44
M  V30 36 1 41 45
M  V30 37 1 46 47
M  V30 38 1 47 48
M  V30 39 1 49 50
M  V30 40 1 50 51
M  V30 41 1 52 53
M  V30 42 1 53 54
M  V30 43 1 55 56
M  V30 44 1 56 57
M  V30 45 1 58 59
M  V30 46 1 59 60
M  V30 47 1 61 62
M  V30 48 1 62 63
M  V30 49 1 64 65
M  V30 50 1 65 66
M  V30 51 1 67 68
M  V30 52 1 68 69
M  V30 53 1 70 71
M  V30 54 1 71 72
M  V30 55 1 73 74
M  V30 56 1 74 75
M  V30 57 1 76 77
M  V30 58 1 77 78
M  V30 59 1 79 80
M  V30 60 1 80 81
M  V30 61 1 82 83
M  V30 62 1 83 84
M  V30 63 1 85 86
M  V30 64 1 86 87
M  V30 65 1 88 89
M  V30 66 1 89 90
M  V30 67 1 91 92
M  V30 68 1 92 93
M  V30 69 1 94 95
M  V30 70 1 95 96
M  V30 71 1 97 98
M  V30 72 1 98 99
M  V30 73 1 2 49
M  V30 74 1 3 97
M  V30 75 1 4 58
M  V30 76 1 5 61
M  V30 77 1 7 46
M  V30 78 1 8 85
M  V30 79 1 9 94
M  V30 80 1 10 52
M  V30 81 1 12 88
M  V30 82 1 13 70
M  V30 83 1 14 91
M  V30 84 1 15 82
M  V30 85 1 17 93
M  V30 86 1 18 79
M  V30 87 1 19 76
M  V30 88 1 20 55
M  V30 89 1 22 48
M  V30 90 1 23 72
M  V30 91 1 24 78
M  V30 92 1 25 73
M  V30 93 1 27 81
M  V30 94 1 28 67
M  V30 95 1 29 60
M  V30 96 1 30 57
M  V30 97 1 32 51
M  V30 98 1 33 69
M  V30 99 1 34 84
M  V30 100 1 35 90
M  V30 101 1 37 75
M  V30 102 1 38 64
M  V30 103 1 39 96
M  V30 104 1 40 63
M  V30 105 1 42 87
M  V30 106 1 43 99
M  V30 107 1 44 66
M  V30 108 1 45 54
M  V30 END BOND
M  V30 END CTAB
M  END

$$$$
