
     RDKit          3D

  0  0  0  0  0  0  0  0  0  0999 V3000
M  V30 BEGIN CTAB
M  V30 COUNTS 99 108 0 0 0
M  V30 BEGIN ATOM
M  V30 1 Pd 0.3163 -3.7889 -0.2808 0
M  V30 2 Pb -0.3418 -3.4977 -0.9713 0
M  V30 3 Pb 0.9861 -3.1651 -0.6766 0
M  V30 4 Pb -0.3887 -4.3471 0.1565 0
M  V30 5 Pb 0.9964 -4.1066 0.3806 0
M  V30 6 Pd 5.9438 2.0501 -4.5941 0
M  V30 7 Pb 5.3183 2.5351 -3.9770 0
M  V30 8 Pb 5.1720 1.7594 -5.1690 0
M  V30 9 Pb 6.6603 2.0413 -3.9029 0
M  V30 10 Pb 6.5548 1.5917 -5.2367 0
M  V30 11 Pd -4.0409 4.6109 1.0472 0
M  V30 12 Pb -4.9224 4.1290 1.0871 0
M  V30 13 Pb -3.1525 5.0694 1.0070 0
M  V30 14 Pb -4.0982 4.8918 2.0055 0
M  V30 15 Pb -3.9686 4.3531 0.0863 0
M  V30 16 Pd -3.0179 1.9845 5.2325 0
M  V30 17 Pb -3.1680 2.9692 5.2476 0
M  V30 18 Pb -2.9151 0.9715 5.1263 0
M  V30 19 Pb -2.0286 2.1329 5.2137 0
M  V30 20 Pb -4.0020 1.8915 5.2825 0
M  V30 21 Pd 1.4631 3.4819 1.8659 0
M  V30 22 Pb 1.8595 3.6360 0.9571 0
M  V30 23 Pb 0.7993 4.2078 1.6707 0
M  V30 24 Pb 1.1055 3.3237 2.7888 0
M  V30 25 Pb 2.1553 2.7953 2.0818 0
M  V30 26 Pd -4.6813 -2.9569 2.3012 0
M  V30 27 Pb -4.0939 -2.5756 3.0461 0
M  V30 28 Pb -5.2731 -3.1992 1.5356 0
M  V30 29 Pb -3.9760 -3.6140 2.0169 0
M  V30 30 Pb -5.4431 -2.4108 2.6168 0
M  V30 31 Pd -5.7549 0.3275 -1.4760 0
M  V30 32 Pb -5.1682 -0.2351 -2.0502 0
M  V30 33 Pb -6.2004 -0.5227 -1.1839 0
M  V30 34 Pb -5.2841 1.1467 -1.7981 0
M  V30 35 Pb -6.2663 0.9005 -0.8310 0
M  V30 36 Pd 5.6108 -2.8731 0.4331 0
M  V30 37 Pb 5.4257 -2.1706 1.1153 0
M  V30 38 Pb 5.7378 -3.5572 -0.2876 0
M  V30 39 Pb 6.2795 -2.2422 0.0329 0
M  V30 40 Pb 4.9292 -3.4665 0.8636 0
M  V30 41 Pd 4.1069 -2.8705 -4.5865 0
M  V30 42 Pb 3.8238 -2.0371 -5.0895 0
M  V30 43 Pb 3.6249 -2.5288 -3.7818 0
M  V30 44 Pb 4.4827 -3.6244 -4.0464 0
M  V30 45 Pb 4.6935 -3.1202 -5.3542 0
M  V30 46 Ag 4.8373 2.9268 -3.5492 0
M  V30 47 Fe 3.5149 3.2936 -1.6062 0
M  V30 48 Ag 2.1485 3.7856 0.2778 0
M  V30 49 Ag -0.8292 -3.2754 -1.4925 0
M  V30 50 Fe -2.7522 -2.0046 -2.0457 0
M  V30 51 Ag -4.6837 -0.6781 -2.4024 0
M  V30 52 Ag 2.6685 2.2938 2.2957 0
M  V30 53 Fe 3.9720 0.3411 1.9546 0
M  V30 54 Ag 5.2637 -1.6143 1.5861 0
M  V30 55 Ag 6.9011 1.1390 -5.7150 0
M  V30 56 Fe 6.4750 -1.1173 -6.2438 0
M  V30 57 Ag 5.2249 -3.0773 -5.8694 0
M  V30 58 Ag -4.7220 1.7466 5.2386 0
M  V30 59 Fe -5.8716 0.0032 4.1689 0
M  V30 60 Ag -5.9598 -1.9713 2.9034 0
M  V30 61 Ag 7.1179 1.8274 -3.3530 0
M  V30 62 Fe 7.0887 0.1071 -1.7158 0
M  V30 63 Ag 6.7431 -1.7046 -0.2183 0
M  V30 64 Ba -1.2956 2.2922 5.2414 0
M  V30 65 Ga -0.2227 2.7267 4.3237 0
M  V30 66 Ba 0.9239 3.1632 3.5013 0
M  V30 67 Ba -2.8261 0.2060 5.0620 0
M  V30 68 Ga -3.2881 -0.9957 4.2874 0
M  V30 69 Ba -3.6490 -2.2861 3.6073 0
M  V30 70 Ba -3.9330 4.1484 -0.6317 0
M  V30 71 Ga -4.4183 2.9621 -1.3549 0
M  V30 72 Ba -4.9219 1.7574 -2.0340 0
M  V30 73 Ba 4.6069 1.4207 -5.5439 0
M  V30 74 Ga 4.1115 0.0147 -5.5098 0
M  V30 75 Ba 3.6326 -1.3966 -5.4595 0
M  V30 76 Ba -5.5793 3.7558 1.0907 0
M  V30 77 Ga -6.1017 2.5609 0.3874 0
M  V30 78 Ba -6.5919 1.3625 -0.3327 0
M  V30 79 Ba -4.0839 5.1176 2.7209 0
M  V30 80 Ga -3.7215 4.4492 3.9822 0
M  V30 81 Ba -3.3455 3.6916 5.1875 0
M  V30 82 Ba -0.9275 -4.7427 0.4970 0
M  V30 83 Ga -2.2103 -4.4168 1.1563 0
M  V30 84 Ba -3.5027 -4.1724 1.8315 0
M  V30 85 Ba 1.5182 -4.3578 0.8581 0
M  V30 86 Ga 2.9658 -4.1262 1.0304 0
M  V30 87 Ba 4.4133 -3.8944 1.2024 0
M  V30 88 Ba 5.7756 -4.0784 -0.8285 0
M  V30 89 Ga 5.3029 -4.1351 -2.2269 0
M  V30 90 Ba 4.8145 -4.1466 -3.6210 0
M  V30 91 Ba 1.4574 -2.6526 -0.9481 0
M  V30 92 Ga 2.3808 -2.4870 -2.0830 0
M  V30 93 Ba 3.3292 -2.2070 -3.1739 0
M  V30 94 Ba -5.7650 -3.2602 0.9746 0
M  V30 95 Ga -6.1471 -2.2575 -0.0407 0
M  V30 96 Ba -6.4783 -1.2047 -1.0228 0
M  V30 97 Ba -2.4910 5.4239 1.0011 0
M  V30 98 Ga -1.0799 5.0674 1.2548 0
M  V30 99 Ba 0.3503 4.7860 1.4947 0
M  V30 END ATOM
M  V30 BEGIN BOND
M  V30 1 1 1 2
M  V30 2 1 1 3
M  V30 3 1 1 4
M  V30 4 1 1 5
M  V30 5 1 6 7
M  V30 6 1 6 8
M  V30 7 1 6 9
M  V30 8 1 6 10
M  V30 9 1 11 12
M  V30 10 1 11 13
M  V30 11 1 11 14
M  V30 12 1 11 15
M  V30 13 1 16 17
M  V30 14 1 16 18
M  V30 15 1 16 19
M  V30 16 1 16 20
M  V30 17 1 21 22
M  V30 18 1 21 23
M  V30 19 1 21 24
M  V30 20 1 21 25
M  V30 21 1 26 27
M  V30 22 1 26 28
M  V30 23 1 26 29
M  V30 24 1 26 30
M  V30 25 1 31 32
M  V30 26 1 31 33
M  V30 27 1 31 34
M  V30 28 1 31 35
M  V30 29 1 36 37
M  V30 30 1 36 38
M  V30 31 1 36 39
M  V30 32 1 36 40
M  V30 33 1 41 42
M  V30 34 1 41 43
M  V30 35 1 41 44
M  V30 36 1 41 45
M  V30 37 1 46 47
M  V30 38 1 47 48
M  V30 39 1 49 50
M  V30 40 1 50 51
M  V30 41 1 52 53
M  V30 42 1 53 54
M  V30 43 1 55 56
M  V30 44 1 56 57
M  V30 45 1 58 59
M  V30 46 1 59 60
M  V30 47 1 61 62
M  V30 48 1 62 63
M  V30 49 1 64 65
M  V30 50 1 65 66
M  V30 51 1 67 68
M  V30 52 1 68 69
M  V30 53 1 70 71
M  V30 54 1 71 72
M  V30 55 1 73 74
M  V30 56 1 74 75
M  V30 57 1 76 77
M  V30 58 1 77 78
M  V30 59 1 79 80
M  V30 60 1 80 81
M  V30 61 1 82 83
M  V30 62 1 83 84
M  V30 63 1 85 86
M  V30 64 1 86 87
M  V30 65 1 88 89
M  V30 66 1 89 90
M  V30 67 1 91 92
M  V30 68 1 92 93
M  V30 69 1 94 95
M  V30 70 1 95 96
M  V30 71 1 97 98
M  V30 72 1 98 99
M  V30 73 1 2 49
M  V30 74 1 3 91
M  V30 75 1 4 82
M  V30 76 1 5 85
M  V30 77 1 7 46
M  V30 78 1 8 73
M  V30 79 1 9 61
M  V30 80 1 10 55
M  V30 81 1 12 76
M  V30 82 1 13 97
M  V30 83 1 14 79
M  V30 84 1 15 70
M  V30 85 1 17 81
M  V30 86 1 18 67
M  V30 87 1 19 64
M  V30 88 1 20 58
M  V30 89 1 22 48
M  V30 90 1 23 99
M  V30 91 1 24 66
M  V30 92 1 25 52
M  V30 93 1 27 69
M  V30 94 1 28 94
M  V30 95 1 29 84
M  V30 96 1 30 60
M  V30 97 1 32 51
M  V30 98 1 33 96
M  V30 99 1 34 72
M  V30 100 1 35 78
M  V30 101 1 37 54
M  V30 102 1 38 88
M  V30 103 1 39 63
M  V30 104 1 40 87
M  V30 105 1 42 75
M  V30 106 1 43 93
M  V30 107 1 44 90
M  V30 108 1 45 57
M  V30 END BOND
M  V30 END CTAB
M  END

$$$$
