
     RDKit          3D

  0  0  0  0  0  0  0  0  0  0999 V3000
M  V30 BEGIN CTAB
M  V30 COUNTS 99 108 0 0 0
M  V30 BEGIN ATOM
M  V30 1 Pd 2.4494 -6.1086 -2.4058 0
M  V30 2 Pb 1.4632 -6.2118 -2.2788 0
M  V30 3 Pb 2.2966 -5.3999 -3.0946 0
M  V30 4 Pb 3.4334 -6.0312 -2.5550 0
M  V30 5 Pb 2.6197 -6.4443 -1.4640 0
M  V30 6 Pd -4.2122 1.9306 3.0300 0
M  V30 7 Pb -4.4061 0.9802 3.2404 0
M  V30 8 Pb -4.0699 2.9085 2.8578 0
M  V30 9 Pb -4.8156 1.8679 2.2116 0
M  V30 10 Pb -3.6439 1.9664 3.8527 0
M  V30 11 Pd 3.0373 -2.8234 1.3724 0
M  V30 12 Pb 3.0830 -3.8197 1.5565 0
M  V30 13 Pb 2.0816 -2.7871 1.6666 0
M  V30 14 Pb 4.0029 -2.8313 1.1200 0
M  V30 15 Pb 2.9021 -2.0206 0.7917 0
M  V30 16 Pd 4.5566 3.2197 3.0529 0
M  V30 17 Pb 4.9333 3.1251 2.1266 0
M  V30 18 Pb 4.6944 2.2397 3.1954 0
M  V30 19 Pb 4.1803 3.2797 3.9751 0
M  V30 20 Pb 4.2632 4.1684 2.9249 0
M  V30 21 Pd 2.7357 2.0472 -3.9019 0
M  V30 22 Pb 2.6698 1.0619 -4.0585 0
M  V30 23 Pb 2.8009 3.0274 -3.7727 0
M  V30 24 Pb 3.6605 1.9789 -3.5331 0
M  V30 25 Pb 1.7472 2.1809 -4.0319 0
M  V30 26 Pd -1.2281 6.0756 0.1766 0
M  V30 27 Pb -0.6795 6.5139 0.8862 0
M  V30 28 Pb -1.9720 5.8578 0.8129 0
M  V30 29 Pb -1.5971 5.5115 -0.5697 0
M  V30 30 Pb -0.4956 6.3221 -0.4437 0
M  V30 31 Pd 0.8931 0.3399 4.8631 0
M  V30 32 Pb 1.3472 1.0646 5.3764 0
M  V30 33 Pb 1.7948 0.0257 4.5556 0
M  V30 34 Pb 0.0119 0.7000 5.1750 0
M  V30 35 Pb 0.4541 -0.3839 4.3292 0
M  V30 36 Pd -2.0183 -3.7591 -4.4813 0
M  V30 37 Pb -1.0423 -3.5800 -4.5907 0
M  V30 38 Pb -3.0094 -3.8587 -4.3052 0
M  V30 39 Pb -1.8222 -4.5124 -3.8535 0
M  V30 40 Pb -2.2260 -2.9853 -5.0732 0
M  V30 41 Pd -6.2604 -1.0652 -1.7721 0
M  V30 42 Pb -6.1258 -0.4896 -2.5737 0
M  V30 43 Pb -6.0969 -1.8785 -2.3516 0
M  V30 44 Pb -6.3246 -0.2468 -1.1718 0
M  V30 45 Pb -6.3485 -1.6565 -0.9797 0
M  V30 46 Ag 2.6064 0.3276 -4.1970 0
M  V30 47 Fe 1.1996 -1.5701 -4.4322 0
M  V30 48 Ag -0.3225 -3.3804 -4.6357 0
M  V30 49 Ag 2.2280 -4.6914 -3.3314 0
M  V30 50 Fe 2.4228 -2.7840 -1.9293 0
M  V30 51 Ag 2.7693 -1.6721 0.1409 0
M  V30 52 Ag 1.0128 2.3619 -3.9866 0
M  V30 53 Fe -0.4900 3.6641 -2.6689 0
M  V30 54 Ag -1.7098 5.0583 -1.1661 0
M  V30 55 Ag -2.4945 -2.3719 -5.3934 0
M  V30 56 Fe -4.2094 -0.9172 -4.6851 0
M  V30 57 Ag -5.8984 -0.1865 -3.2115 0
M  V30 58 Ag 4.1545 -5.8594 -2.5286 0
M  V30 59 Fe 5.1274 -4.3702 -0.9950 0
M  V30 60 Ag 4.6699 -2.9463 0.8161 0
M  V30 61 Ag -4.6160 0.2734 3.2975 0
M  V30 62 Fe -5.5377 -1.2596 1.7673 0
M  V30 63 Ag -6.3234 -1.9977 -0.3249 0
M  V30 64 Ag 3.9176 4.8359 2.9021 0
M  V30 65 Fe 1.9411 5.9472 2.1904 0
M  V30 66 Ag -0.1197 6.7523 1.3237 0
M  V30 67 Ag 5.2185 2.9830 1.4425 0
M  V30 68 Fe 4.8689 2.4898 -0.8575 0
M  V30 69 Ag 4.2796 2.0245 -3.1136 0
M  V30 70 Ag 2.7792 3.7538 -3.6353 0
M  V30 71 Fe 1.5450 5.2986 -2.3462 0
M  V30 72 Ag 0.0657 6.4475 -0.9095 0
M  V30 73 Ba 2.7497 -6.5468 -0.7131 0
M  V30 74 Ga 2.9251 -5.5870 0.4306 0
M  V30 75 Ba 3.0941 -4.5883 1.5414 0
M  V30 76 Ba 3.8732 3.2982 4.6565 0
M  V30 77 Ga 2.7972 2.4856 5.2441 0
M  V30 78 Ba 1.7147 1.6139 5.7251 0
M  V30 79 Ba 0.7237 -6.3053 -2.1990 0
M  V30 80 Ga -0.4779 -5.6819 -2.7843 0
M  V30 81 Ba -1.6850 -5.0644 -3.3646 0
M  V30 82 Ba 4.7025 1.4990 3.3146 0
M  V30 83 Ga 3.6264 0.6219 3.8209 0
M  V30 84 Ba 2.4883 -0.1685 4.3350 0
M  V30 85 Ba -4.0183 3.6531 2.7593 0
M  V30 86 Ga -3.2368 4.6538 2.0019 0
M  V30 87 Ba -2.5322 5.7502 1.3039 0
M  V30 88 Ba -3.2485 1.9566 4.4907 0
M  V30 89 Ga -1.9238 1.4769 4.9333 0
M  V30 90 Ba -0.6151 1.0184 5.4409 0
M  V30 91 Ba -3.7576 -3.9202 -4.1767 0
M  V30 92 Ga -4.8350 -3.1770 -3.4642 0
M  V30 93 Ba -5.9701 -2.4964 -2.7791 0
M  V30 94 Ba -5.3068 1.8624 1.6213 0
M  V30 95 Ga -5.7836 1.0571 0.4545 0
M  V30 96 Ba -6.3754 0.3883 -0.7454 0
M  V30 97 Ba 1.3751 -2.7319 1.9142 0
M  V30 98 Ga 0.7365 -1.8463 2.9076 0
M  V30 99 Ba 0.1569 -0.9319 3.9109 0
M  V30 END ATOM
M  V30 BEGIN BOND
M  V30 1 1 1 2
M  V30 2 1 1 3
M  V30 3 1 1 4
M  V30 4 1 1 5
M  V30 5 1 6 7
M  V30 6 1 6 8
M  V30 7 1 6 9
M  V30 8 1 6 10
M  V30 9 1 11 12
M  V30 10 1 11 13
M  V30 11 1 11 14
M  V30 12 1 11 15
M  V30 13 1 16 17
M  V30 14 1 16 18
M  V30 15 1 16 19
M  V30 16 1 16 20
M  V30 17 1 21 22
M  V30 18 1 21 23
M  V30 19 1 21 24
M  V30 20 1 21 25
M  V30 21 1 26 27
M  V30 22 1 26 28
M  V30 23 1 26 29
M  V30 24 1 26 30
M  V30 25 1 31 32
M  V30 26 1 31 33
M  V30 27 1 31 34
M  V30 28 1 31 35
M  V30 29 1 36 37
M  V30 30 1 36 38
M  V30 31 1 36 39
M  V30 32 1 36 40
M  V30 33 1 41 42
M  V30 34 1 41 43
M  V30 35 1 41 44
M  V30 36 1 41 45
M  V30 37 1 46 47
M  V30 38 1 47 48
M  V30 39 1 49 50
M  V30 40 1 50 51
M  V30 41 1 52 53
M  V30 42 1 53 54
M  V30 43 1 55 56
M  V30 44 1 56 57
M  V30 45 1 58 59
M  V30 46 1 59 60
M  V30 47 1 61 62
M  V30 48 1 62 63
M  V30 49 1 64 65
M  V30 50 1 65 66
M  V30 51 1 67 68
M  V30 52 1 68 69
M  V30 53 1 70 71
M  V30 54 1 71 72
M  V30 55 1 73 74
M  V30 56 1 74 75
M  V30 57 1 76 77
M  V30 58 1 77 78
M  V30 59 1 79 80
M  V30 60 1 80 81
M  V30 61 1 82 83
M  V30 62 1 83 84
M  V30 63 1 85 86
M  V30 64 1 86 87
M  V30 65 1 88 89
M  V30 66 1 89 90
M  V30 67 1 91 92
M  V30 68 1 92 93
M  V30 69 1 94 95
M  V30 70 1 95 96
M  V30 71 1 97 98
M  V30 72 1 98 99
M  V30 73 1 2 79
M  V30 74 1 3 49
M  V30 75 1 4 58
M  V30 76 1 5 73
M  V30 77 1 7 61
M  V30 78 1 8 85
M  V30 79 1 9 94
M  V30 80 1 10 88
M  V30 81 1 12 75
M  V30 82 1 13 97
M  V30 83 1 14 60
M  V30 84 1 15 51
M  V30 85 1 17 67
M  V30 86 1 18 82
M  V30 87 1 19 76
M  V30 88 1 20 64
M  V30 89 1 22 46
M  V30 90 1 23 70
M  V30 91 1 24 69
M  V30 92 1 25 52
M  V30 93 1 27 66
M  V30 94 1 28 87
M  V30 95 1 29 54
M  V30 96 1 30 72
M  V30 97 1 32 78
M  V30 98 1 33 84
M  V30 99 1 34 90
M  V30 100 1 35 99
M  V30 101 1 37 48
M  V30 102 1 38 91
M  V30 103 1 39 81
M  V30 104 1 40 55
M  V30 105 1 42 57
M  V30 106 1 43 93
M  V30 107 1 44 96
M  V30 108 1 45 63
M  V30 END BOND
M  V30 END CTAB
M  END

$$$$
