
     RDKit          3D

  0  0  0  0  0  0  0  0  0  0999 V3000
M  V30 BEGIN CTAB
M  V30 COUNTS 99 108 0 0 0
M  V30 BEGIN ATOM
M  V30 1 Pd 4.7545 -5.4645 3.3555 0
M  V30 2 Pb 5.3864 -4.9786 3.9547 0
M  V30 3 Pb 4.4254 -5.9645 4.1735 0
M  V30 4 Pb 5.1064 -4.9540 2.5708 0
M  V30 5 Pb 4.0978 -5.9395 2.7620 0
M  V30 6 Pd 4.5967 0.8432 -1.1818 0
M  V30 7 Pb 4.4569 1.0884 -0.2228 0
M  V30 8 Pb 4.1280 1.6839 -1.4428 0
M  V30 9 Pb 4.6566 0.5864 -2.1442 0
M  V30 10 Pb 5.0309 -0.0195 -0.9225 0
M  V30 11 Pd -3.1370 3.1182 -6.5764 0
M  V30 12 Pb -4.1176 3.0456 -6.7312 0
M  V30 13 Pb -3.0565 2.1228 -6.5485 0
M  V30 14 Pb -2.1437 3.1941 -6.4730 0
M  V30 15 Pb -3.2499 4.1242 -6.4995 0
M  V30 16 Pd -5.7459 7.0644 -3.3261 0
M  V30 17 Pb -4.9455 7.2810 -2.7481 0
M  V30 18 Pb -6.2895 6.9758 -2.4959 0
M  V30 19 Pb -5.1541 7.0067 -4.1479 0
M  V30 20 Pb -6.5161 6.7552 -3.8753 0
M  V30 21 Pd 2.0030 -4.7185 8.2425 0
M  V30 22 Pb 1.1803 -5.1230 7.8575 0
M  V30 23 Pb 1.4696 -3.9039 8.4569 0
M  V30 24 Pb 2.5301 -5.4692 7.8229 0
M  V30 25 Pb 2.8583 -4.2849 8.5130 0
M  V30 26 Pd -0.4679 -4.8185 1.3456 0
M  V30 27 Pb -0.6690 -5.1417 2.2671 0
M  V30 28 Pb -0.2835 -4.5424 0.3985 0
M  V30 29 Pb -1.2377 -4.1827 1.4559 0
M  V30 30 Pb 0.3047 -5.4581 1.2857 0
M  V30 31 Pd 0.7872 -0.2475 -5.0073 0
M  V30 32 Pb 1.7792 -0.1948 -4.8709 0
M  V30 33 Pb -0.1806 -0.3375 -5.2433 0
M  V30 34 Pb 0.7582 -1.1465 -4.5668 0
M  V30 35 Pb 0.7864 0.6768 -5.3913 0
M  V30 36 Pd -0.8385 -0.0391 3.4416 0
M  V30 37 Pb 0.0027 0.4892 3.5416 0
M  V30 38 Pb -0.8648 0.2085 2.4747 0
M  V30 39 Pb -1.6013 -0.6571 3.2506 0
M  V30 40 Pb -0.8204 -0.2656 4.4175 0
M  V30 41 Pd -1.9259 4.3754 -0.1241 0
M  V30 42 Pb -1.7045 3.4081 0.0119 0
M  V30 43 Pb -1.0613 4.4692 -0.6128 0
M  V30 44 Pb -2.1798 5.3214 -0.3734 0
M  V30 45 Pb -2.7848 4.3066 0.3774 0
M  V30 46 Ag 1.0422 -3.2906 8.4577 0
M  V30 47 Fe 0.0766 -1.7821 6.8982 0
M  V30 48 Ag -0.7780 -0.4160 5.1532 0
M  V30 49 Ag 0.6067 -5.3909 7.4667 0
M  V30 50 Fe -0.2155 -5.4535 5.2455 0
M  V30 51 Ag -0.8284 -5.3773 2.9579 0
M  V30 52 Ag 4.2716 1.2755 0.4789 0
M  V30 53 Fe 2.5525 1.1308 2.1092 0
M  V30 54 Ag 0.6739 0.8197 3.5261 0
M  V30 55 Ag -0.1146 -4.4107 -0.3242 0
M  V30 56 Fe 0.2898 -3.0674 -2.2444 0
M  V30 57 Ag 0.7112 -1.8113 -4.2193 0
M  V30 58 Ag -6.5334 6.7646 -1.8277 0
M  V30 59 Fe -5.3573 5.5165 -0.2077 0
M  V30 60 Ag -3.4717 4.3869 0.6505 0
M  V30 61 Ag 5.3885 -4.5593 1.9987 0
M  V30 62 Fe 5.3650 -2.6206 0.6270 0
M  V30 63 Ag 5.3369 -0.6799 -0.7418 0
M  V30 64 Ag 3.7385 2.2965 -1.6197 0
M  V30 65 Fe 1.6956 3.4683 -1.3402 0
M  V30 66 Ag -0.3999 4.5112 -0.9583 0
M  V30 67 Ag 5.7416 -4.6282 4.5065 0
M  V30 68 Fe 5.0679 -4.0796 6.7005 0
M  V30 69 Ag 3.5491 -4.0144 8.5042 0
M  V30 70 Ag -4.8538 3.1205 -6.7886 0
M  V30 71 Fe -6.3708 4.6156 -5.7800 0
M  V30 72 Ag -6.9601 6.3794 -4.3336 0
M  V30 73 Ba -4.3530 7.4370 -2.2967 0
M  V30 74 Ga -3.3762 6.6991 -1.4487 0
M  V30 75 Ba -2.3679 6.0285 -0.5818 0
M  V30 76 Ba 4.2338 -6.3521 4.8029 0
M  V30 77 Ga 3.5577 -6.1479 6.1152 0
M  V30 78 Ba 2.8949 -6.0172 7.4438 0
M  V30 79 Ba -3.3427 4.8814 -6.4395 0
M  V30 80 Ga -4.0417 5.8775 -5.5724 0
M  V30 81 Ba -4.7036 6.9445 -4.7627 0
M  V30 82 Ba -3.0027 1.3798 -6.4681 0
M  V30 83 Ga -1.9478 0.4760 -5.9724 0
M  V30 84 Ba -0.8893 -0.4226 -5.4751 0
M  V30 85 Ba -1.3947 3.2380 -6.4267 0
M  V30 86 Ga -0.3122 2.3115 -6.0383 0
M  V30 87 Ba 0.7673 1.3820 -5.6488 0
M  V30 88 Ba 3.6146 -6.3003 2.3083 0
M  V30 89 Ga 2.2421 -6.0971 1.7901 0
M  V30 90 Ba 0.8752 -5.9499 1.2390 0
M  V30 91 Ba -1.8249 -3.7384 1.6224 0
M  V30 92 Ga -1.9969 -2.4403 2.3122 0
M  V30 93 Ba -2.1230 -1.1378 3.0034 0
M  V30 94 Ba -0.9011 0.3761 1.7462 0
M  V30 95 Ga -1.2165 1.5607 0.9253 0
M  V30 96 Ba -1.5150 2.6804 0.0126 0
M  V30 97 Ba 4.6596 0.3925 -2.8666 0
M  V30 98 Ga 3.5859 0.1129 -3.8396 0
M  V30 99 Ba 2.5307 -0.1715 -4.8313 0
M  V30 END ATOM
M  V30 BEGIN BOND
M  V30 1 1 1 2
M  V30 2 1 1 3
M  V30 3 1 1 4
M  V30 4 1 1 5
M  V30 5 1 6 7
M  V30 6 1 6 8
M  V30 7 1 6 9
M  V30 8 1 6 10
M  V30 9 1 11 12
M  V30 10 1 11 13
M  V30 11 1 11 14
M  V30 12 1 11 15
M  V30 13 1 16 17
M  V30 14 1 16 18
M  V30 15 1 16 19
M  V30 16 1 16 20
M  V30 17 1 21 22
M  V30 18 1 21 23
M  V30 19 1 21 24
M  V30 20 1 21 25
M  V30 21 1 26 27
M  V30 22 1 26 28
M  V30 23 1 26 29
M  V30 24 1 26 30
M  V30 25 1 31 32
M  V30 26 1 31 33
M  V30 27 1 31 34
M  V30 28 1 31 35
M  V30 29 1 36 37
M  V30 30 1 36 38
M  V30 31 1 36 39
M  V30 32 1 36 40
M  V30 33 1 41 42
M  V30 34 1 41 43
M  V30 35 1 41 44
M  V30 36 1 41 45
M  V30 37 1 46 47
M  V30 38 1 47 48
M  V30 39 1 49 50
M  V30 40 1 50 51
M  V30 41 1 52 53
M  V30 42 1 53 54
M  V30 43 1 55 56
M  V30 44 1 56 57
M  V30 45 1 58 59
M  V30 46 1 59 60
M  V30 47 1 61 62
M  V30 48 1 62 63
M  V30 49 1 64 65
M  V30 50 1 65 66
M  V30 51 1 67 68
M  V30 52 1 68 69
M  V30 53 1 70 71
M  V30 54 1 71 72
M  V30 55 1 73 74
M  V30 56 1 74 75
M  V30 57 1 76 77
M  V30 58 1 77 78
M  V30 59 1 79 80
M  V30 60 1 80 81
M  V30 61 1 82 83
M  V30 62 1 83 84
M  V30 63 1 85 86
M  V30 64 1 86 87
M  V30 65 1 88 89
M  V30 66 1 89 90
M  V30 67 1 91 92
M  V30 68 1 92 93
M  V30 69 1 94 95
M  V30 70 1 95 96
M  V30 71 1 97 98
M  V30 72 1 98 99
M  V30 73 1 2 67
M  V30 74 1 3 76
M  V30 75 1 4 61
M  V30 76 1 5 88
M  V30 77 1 7 52
M  V30 78 1 8 64
M  V30 79 1 9 97
M  V30 80 1 10 63
M  V30 81 1 12 70
M  V30 82 1 13 82
M  V30 83 1 14 85
M  V30 84 1 15 79
M  V30 85 1 17 73
M  V30 86 1 18 58
M  V30 87 1 19 81
M  V30 88 1 20 72
M  V30 89 1 22 49
M  V30 90 1 23 46
M  V30 91 1 24 78
M  V30 92 1 25 69
M  V30 93 1 27 51
M  V30 94 1 28 55
M  V30 95 1 29 91
M  V30 96 1 30 90
M  V30 97 1 32 99
M  V30 98 1 33 84
M  V30 99 1 34 57
M  V30 100 1 35 87
M  V30 101 1 37 54
M  V30 102 1 38 94
M  V30 103 1 39 93
M  V30 104 1 40 48
M  V30 105 1 42 96
M  V30 106 1 43 66
M  V30 107 1 44 75
M  V30 108 1 45 60
M  V30 END BOND
M  V30 END CTAB
M  END

$$$$
