
     RDKit          3D

  0  0  0  0  0  0  0  0  0  0999 V3000
M  V30 BEGIN CTAB
M  V30 COUNTS 99 108 0 0 0
M  V30 BEGIN ATOM
M  V30 1 Pd 4.0487 -2.0357 -3.4433 0
M  V30 2 Pb 4.0970 -2.6266 -2.6379 0
M  V30 3 Pb 4.0261 -1.4821 -4.2800 0
M  V30 4 Pb 3.2246 -2.5206 -3.7358 0
M  V30 5 Pb 4.8464 -1.5434 -3.0970 0
M  V30 6 Pd -0.9269 4.3745 -2.6540 0
M  V30 7 Pb -0.8552 3.5197 -2.1400 0
M  V30 8 Pb -0.9456 3.8501 -3.5245 0
M  V30 9 Pb -0.6608 4.9008 -1.8483 0
M  V30 10 Pb -0.9748 5.2274 -3.1649 0
M  V30 11 Pd -2.8944 -0.7516 6.3339 0
M  V30 12 Pb -1.9094 -0.9268 6.3385 0
M  V30 13 Pb -2.7493 0.2357 6.4026 0
M  V30 14 Pb -3.8775 -0.6224 6.2224 0
M  V30 15 Pb -3.0200 -1.7338 6.2150 0
M  V30 16 Pd -5.4099 -0.9972 1.8134 0
M  V30 17 Pb -5.7279 -0.9175 2.7604 0
M  V30 18 Pb -5.4041 -1.9981 1.8642 0
M  V30 19 Pb -5.3657 -0.0003 1.7631 0
M  V30 20 Pb -5.1164 -1.0579 0.8600 0
M  V30 21 Pd -1.3685 2.4450 2.6233 0
M  V30 22 Pb -1.1603 2.1496 1.6900 0
M  V30 23 Pb -1.5853 2.6828 3.5700 0
M  V30 24 Pb -2.3363 2.5287 2.3813 0
M  V30 25 Pb -0.3969 2.3848 2.8583 0
M  V30 26 Pd -2.7105 -4.6523 -0.9955 0
M  V30 27 Pb -3.3555 -4.7231 -0.2307 0
M  V30 28 Pb -2.2681 -5.5110 -0.7320 0
M  V30 29 Pb -2.0704 -4.5666 -1.7602 0
M  V30 30 Pb -3.1313 -3.7837 -1.2520 0
M  V30 31 Pd 0.8393 -5.6200 2.6587 0
M  V30 32 Pb 1.6559 -5.4766 2.1012 0
M  V30 33 Pb 0.4754 -6.2687 1.9915 0
M  V30 34 Pb 0.0119 -5.7129 3.2072 0
M  V30 35 Pb 1.1342 -4.9200 3.3109 0
M  V30 36 Pd 5.4549 4.1330 0.1202 0
M  V30 37 Pb 5.0827 3.7168 0.9489 0
M  V30 38 Pb 5.7591 4.4749 -0.7701 0
M  V30 39 Pb 4.7536 4.8376 0.2307 0
M  V30 40 Pb 6.0431 3.3475 -0.0562 0
M  V30 41 Pd 2.9453 3.0894 -6.3480 0
M  V30 42 Pb 1.9573 2.8618 -6.2920 0
M  V30 43 Pb 3.2197 2.1247 -6.2905 0
M  V30 44 Pb 3.8780 3.3969 -6.1696 0
M  V30 45 Pb 2.6976 4.0381 -6.5139 0
M  V30 46 Ag 4.1538 -3.0869 -2.0482 0
M  V30 47 Fe 3.2083 -4.2153 -0.1851 0
M  V30 48 Ag 2.2585 -5.3412 1.6774 0
M  V30 49 Ag 0.3365 2.3577 3.0190 0
M  V30 50 Fe 2.5619 2.8496 2.3488 0
M  V30 51 Ag 4.7195 3.4096 1.5280 0
M  V30 52 Ag -3.0497 -2.4669 6.0750 0
M  V30 53 Fe -1.9346 -4.2023 4.9067 0
M  V30 54 Ag -0.5980 -5.6932 3.6374 0
M  V30 55 Ag -0.8566 5.7899 -3.6296 0
M  V30 56 Fe 0.7319 5.8207 -5.3607 0
M  V30 57 Ag 2.4221 4.7234 -6.5715 0
M  V30 58 Ag -1.1938 -1.1406 6.2625 0
M  V30 59 Fe 0.1690 -2.7039 5.1026 0
M  V30 60 Ag 1.2604 -4.3721 3.8092 0
M  V30 61 Ag -0.3007 5.2902 -1.3194 0
M  V30 62 Fe 1.8747 5.4285 -0.3767 0
M  V30 63 Ag 4.1384 5.2581 0.3215 0
M  V30 64 Ag 2.5923 -2.8838 -3.9111 0
M  V30 65 Fe 0.4943 -3.7037 -3.1570 0
M  V30 66 Ag -1.5877 -4.4949 -2.3309 0
M  V30 67 Ag 5.4113 -1.1753 -2.7699 0
M  V30 68 Fe 6.0425 0.7396 -1.5188 0
M  V30 69 Ag 6.4050 2.7375 -0.2912 0
M  V30 70 Ag 5.9755 4.6098 -1.4768 0
M  V30 71 Fe 5.3959 4.2329 -3.7495 0
M  V30 72 Ag 4.5011 3.6980 -5.8837 0
M  V30 73 Ba -0.7888 2.8706 -1.7703 0
M  V30 74 Ga -0.9052 2.4089 -0.3736 0
M  V30 75 Ba -1.0073 1.8877 1.0030 0
M  V30 76 Ba -5.3060 0.7459 1.7353 0
M  V30 77 Ga -4.1878 1.6804 1.9643 0
M  V30 78 Ba -3.0604 2.6030 2.1963 0
M  V30 79 Ba -5.3700 -2.7493 1.8844 0
M  V30 80 Ga -4.6135 -3.7611 1.1157 0
M  V30 81 Ba -3.8491 -4.7592 0.3369 0
M  V30 82 Ba -0.8967 3.4584 -4.1829 0
M  V30 83 Ga 0.1694 3.1074 -5.1758 0
M  V30 84 Ba 1.2075 2.7359 -6.1906 0
M  V30 85 Ba -4.9062 -1.1072 0.1423 0
M  V30 86 Ga -4.1753 -2.1093 -0.6532 0
M  V30 87 Ba -3.4419 -3.1257 -1.4280 0
M  V30 88 Ba -4.6080 -0.5721 6.0695 0
M  V30 89 Ga -5.3188 -0.6908 4.7823 0
M  V30 90 Ba -5.9714 -0.8196 3.4654 0
M  V30 91 Ba 4.0226 -1.1268 -4.9443 0
M  V30 92 Ga 3.7109 0.1808 -5.5625 0
M  V30 93 Ba 3.4502 1.4086 -6.3457 0
M  V30 94 Ba -1.9108 -6.1433 -0.5394 0
M  V30 95 Ga -0.8772 -6.4627 0.4641 0
M  V30 96 Ba 0.1548 -6.7203 1.4867 0
M  V30 97 Ba -2.6313 0.9764 6.4172 0
M  V30 98 Ga -2.1956 1.9282 5.3780 0
M  V30 99 Ba -1.7561 2.8189 4.2874 0
M  V30 END ATOM
M  V30 BEGIN BOND
M  V30 1 1 1 2
M  V30 2 1 1 3
M  V30 3 1 1 4
M  V30 4 1 1 5
M  V30 5 1 6 7
M  V30 6 1 6 8
M  V30 7 1 6 9
M  V30 8 1 6 10
M  V30 9 1 11 12
M  V30 10 1 11 13
M  V30 11 1 11 14
M  V30 12 1 11 15
M  V30 13 1 16 17
M  V30 14 1 16 18
M  V30 15 1 16 19
M  V30 16 1 16 20
M  V30 17 1 21 22
M  V30 18 1 21 23
M  V30 19 1 21 24
M  V30 20 1 21 25
M  V30 21 1 26 27
M  V30 22 1 26 28
M  V30 23 1 26 29
M  V30 24 1 26 30
M  V30 25 1 31 32
M  V30 26 1 31 33
M  V30 27 1 31 34
M  V30 28 1 31 35
M  V30 29 1 36 37
M  V30 30 1 36 38
M  V30 31 1 36 39
M  V30 32 1 36 40
M  V30 33 1 41 42
M  V30 34 1 41 43
M  V30 35 1 41 44
M  V30 36 1 41 45
M  V30 37 1 46 47
M  V30 38 1 47 48
M  V30 39 1 49 50
M  V30 40 1 50 51
M  V30 41 1 52 53
M  V30 42 1 53 54
M  V30 43 1 55 56
M  V30 44 1 56 57
M  V30 45 1 58 59
M  V30 46 1 59 60
M  V30 47 1 61 62
M  V30 48 1 62 63
M  V30 49 1 64 65
M  V30 50 1 65 66
M  V30 51 1 67 68
M  V30 52 1 68 69
M  V30 53 1 70 71
M  V30 54 1 71 72
M  V30 55 1 73 74
M  V30 56 1 74 75
M  V30 57 1 76 77
M  V30 58 1 77 78
M  V30 59 1 79 80
M  V30 60 1 80 81
M  V30 61 1 82 83
M  V30 62 1 83 84
M  V30 63 1 85 86
M  V30 64 1 86 87
M  V30 65 1 88 89
M  V30 66 1 89 90
M  V30 67 1 91 92
M  V30 68 1 92 93
M  V30 69 1 94 95
M  V30 70 1 95 96
M  V30 71 1 97 98
M  V30 72 1 98 99
M  V30 73 1 2 46
M  V30 74 1 3 91
M  V30 75 1 4 64
M  V30 76 1 5 67
M  V30 77 1 7 73
M  V30 78 1 8 82
M  V30 79 1 9 61
M  V30 80 1 10 55
M  V30 81 1 12 58
M  V30 82 1 13 97
M  V30 83 1 14 88
M  V30 84 1 15 52
M  V30 85 1 17 90
M  V30 86 1 18 79
M  V30 87 1 19 76
M  V30 88 1 20 85
M  V30 89 1 22 75
M  V30 90 1 23 99
M  V30 91 1 24 78
M  V30 92 1 25 49
M  V30 93 1 27 81
M  V30 94 1 28 94
M  V30 95 1 29 66
M  V30 96 1 30 87
M  V30 97 1 32 48
M  V30 98 1 33 96
M  V30 99 1 34 54
M  V30 100 1 35 60
M  V30 101 1 37 51
M  V30 102 1 38 70
M  V30 103 1 39 63
M  V30 104 1 40 69
M  V30 105 1 42 84
M  V30 106 1 43 93
M  V30 107 1 44 72
M  V30 108 1 45 57
M  V30 END BOND
M  V30 END CTAB
M  END

$$$$
