
     RDKit          3D

  0  0  0  0  0  0  0  0  0  0999 V3000
M  V30 BEGIN CTAB
M  V30 COUNTS 99 108 0 0 0
M  V30 BEGIN ATOM
M  V30 1 Pd -1.8277 1.8614 7.5219 0
M  V30 2 Pb -2.6994 1.9534 7.0390 0
M  V30 3 Pb -0.9113 1.8029 7.9525 0
M  V30 4 Pb -1.6880 0.9813 7.0700 0
M  V30 5 Pb -1.9663 2.7301 7.9879 0
M  V30 6 Pd 1.3930 3.3094 -2.3430 0
M  V30 7 Pb 2.0356 3.1401 -3.0908 0
M  V30 8 Pb 1.4420 4.2875 -2.5225 0
M  V30 9 Pb 2.3867 3.3323 -2.1409 0
M  V30 10 Pb 0.4588 3.3902 -1.9938 0
M  V30 11 Pd 3.3766 4.4636 7.8901 0
M  V30 12 Pb 3.8541 5.2442 7.4873 0
M  V30 13 Pb 3.9281 3.8849 7.2898 0
M  V30 14 Pb 2.8404 3.6687 8.2193 0
M  V30 15 Pb 2.7823 5.0600 8.4207 0
M  V30 16 Pd -1.0940 -8.2360 -2.8465 0
M  V30 17 Pb -1.9776 -8.0689 -3.2831 0
M  V30 18 Pb -0.5959 -7.6741 -3.5072 0
M  V30 19 Pb -0.3182 -8.2891 -2.2182 0
M  V30 20 Pb -1.6002 -8.7811 -2.1705 0
M  V30 21 Pd -3.1758 0.1795 2.7188 0
M  V30 22 Pb -3.5970 -0.6532 3.0789 0
M  V30 23 Pb -2.7334 -0.2989 3.4765 0
M  V30 24 Pb -3.6767 0.7282 3.3910 0
M  V30 25 Pb -3.1641 0.9320 2.0596 0
M  V30 26 Pd -1.1814 -2.8445 -8.4295 0
M  V30 27 Pb -0.4459 -2.8050 -9.1091 0
M  V30 28 Pb -0.6598 -3.4665 -7.8451 0
M  V30 29 Pb -1.6982 -2.2237 -9.0087 0
M  V30 30 Pb -1.7136 -2.5014 -7.6528 0
M  V30 31 Pd 5.5087 5.5429 1.1681 0
M  V30 32 Pb 5.2539 6.3109 0.5887 0
M  V30 33 Pb 5.5921 6.1313 1.9722 0
M  V30 34 Pb 5.3488 4.9241 0.3816 0
M  V30 35 Pb 5.6818 4.7722 1.7808 0
M  V30 36 Pd 0.9592 2.7215 -7.7243 0
M  V30 37 Pb 1.5372 2.3549 -8.4562 0
M  V30 38 Pb 0.2711 2.6577 -6.9985 0
M  V30 39 Pb 1.7111 2.6912 -7.0656 0
M  V30 40 Pb 0.2115 2.7463 -8.3788 0
M  V30 41 Pd -3.9896 -7.3906 1.8366 0
M  V30 42 Pb -3.7240 -8.1702 1.2611 0
M  V30 43 Pb -3.0915 -7.4799 2.2666 0
M  V30 44 Pb -4.7505 -7.2588 1.2018 0
M  V30 45 Pb -4.2346 -6.5912 2.3848 0
M  V30 46 Ag 0.1254 -2.5182 -9.5114 0
M  V30 47 Fe 1.1910 -0.3855 -9.4759 0
M  V30 48 Ag 1.8073 1.8588 -8.9577 0
M  V30 49 Ag -0.2266 3.4224 -1.6893 0
M  V30 50 Fe -1.7249 2.4991 -0.0936 0
M  V30 51 Ag -3.1092 1.4718 1.5411 0
M  V30 52 Ag -1.9147 3.3806 8.3413 0
M  V30 53 Fe -0.0626 4.7647 8.8036 0
M  V30 54 Ag 2.2078 5.3976 8.7455 0
M  V30 55 Ag 1.6075 5.0095 -2.5701 0
M  V30 56 Fe 3.2013 6.3320 -1.4416 0
M  V30 57 Ag 4.9290 6.7675 0.1032 0
M  V30 58 Ag -3.9039 -1.2893 3.3316 0
M  V30 59 Fe -4.1768 -3.6355 3.0863 0
M  V30 60 Ag -4.4069 -5.9795 2.7828 0
M  V30 61 Ag -0.2248 -7.2471 -3.9999 0
M  V30 62 Fe -0.2430 -5.5933 -5.7046 0
M  V30 63 Ag -0.2738 -3.9387 -7.4083 0
M  V30 64 Ag -1.9538 -2.0206 -7.1220 0
M  V30 65 Fe -1.3207 0.2152 -6.5875 0
M  V30 66 Ag -0.2702 2.3556 -6.5669 0
M  V30 67 Ag 0.0660 -8.2849 -1.5759 0
M  V30 68 Fe -0.7535 -7.9652 0.6267 0
M  V30 69 Ag -2.3528 -7.5793 2.3351 0
M  V30 70 Ag -2.7069 -7.9168 -3.3557 0
M  V30 71 Fe -4.2994 -7.4938 -1.6498 0
M  V30 72 Ag -5.1250 -7.2102 0.5555 0
M  V30 73 Ag -1.9958 -1.6594 -9.3849 0
M  V30 74 Fe -1.4937 0.6428 -9.4256 0
M  V30 75 Ag -0.3520 2.6203 -8.8426 0
M  V30 76 Ag 4.2047 5.7776 7.0941 0
M  V30 77 Fe 4.9687 6.2864 4.9040 0
M  V30 78 Ag 5.6099 6.4959 2.6272 0
M  V30 79 Ag 4.3320 3.5261 6.7701 0
M  V30 80 Fe 5.1221 3.7376 4.5410 0
M  V30 81 Ag 5.7534 4.2451 2.3090 0
M  V30 82 Ba 2.5160 3.0070 -3.6517 0
M  V30 83 Ga 2.3953 2.8407 -5.1123 0
M  V30 84 Ba 2.2766 2.6740 -6.5731 0
M  V30 85 Ba -1.9799 -9.1938 -1.6648 0
M  V30 86 Ga -2.7470 -8.9505 -0.4208 0
M  V30 87 Ba -3.5222 -8.7532 0.8263 0
M  V30 88 Ba -3.3297 2.0221 6.6367 0
M  V30 89 Ga -3.7065 1.5792 5.2789 0
M  V30 90 Ba -4.0456 1.1194 3.9168 0
M  V30 91 Ba -1.6030 0.3222 6.7240 0
M  V30 92 Ga -1.9868 -0.1777 5.3920 0
M  V30 93 Ba -2.3888 -0.6357 4.0503 0
M  V30 94 Ba -0.2244 1.7458 8.2820 0
M  V30 95 Ga 1.0893 2.4515 8.3381 0
M  V30 96 Ba 2.4414 3.0688 8.4725 0
M  V30 97 Ba 3.1379 3.3330 -2.0015 0
M  V30 98 Ga 4.1433 3.9294 -1.0747 0
M  V30 99 Ba 5.2405 4.4589 -0.2137 0
M  V30 END ATOM
M  V30 BEGIN BOND
M  V30 1 1 1 2
M  V30 2 1 1 3
M  V30 3 1 1 4
M  V30 4 1 1 5
M  V30 5 1 6 7
M  V30 6 1 6 8
M  V30 7 1 6 9
M  V30 8 1 6 10
M  V30 9 1 11 12
M  V30 10 1 11 13
M  V30 11 1 11 14
M  V30 12 1 11 15
M  V30 13 1 16 17
M  V30 14 1 16 18
M  V30 15 1 16 19
M  V30 16 1 16 20
M  V30 17 1 21 22
M  V30 18 1 21 23
M  V30 19 1 21 24
M  V30 20 1 21 25
M  V30 21 1 26 27
M  V30 22 1 26 28
M  V30 23 1 26 29
M  V30 24 1 26 30
M  V30 25 1 31 32
M  V30 26 1 31 33
M  V30 27 1 31 34
M  V30 28 1 31 35
M  V30 29 1 36 37
M  V30 30 1 36 38
M  V30 31 1 36 39
M  V30 32 1 36 40
M  V30 33 1 41 42
M  V30 34 1 41 43
M  V30 35 1 41 44
M  V30 36 1 41 45
M  V30 37 1 46 47
M  V30 38 1 47 48
M  V30 39 1 49 50
M  V30 40 1 50 51
M  V30 41 1 52 53
M  V30 42 1 53 54
M  V30 43 1 55 56
M  V30 44 1 56 57
M  V30 45 1 58 59
M  V30 46 1 59 60
M  V30 47 1 61 62
M  V30 48 1 62 63
M  V30 49 1 64 65
M  V30 50 1 65 66
M  V30 51 1 67 68
M  V30 52 1 68 69
M  V30 53 1 70 71
M  V30 54 1 71 72
M  V30 55 1 73 74
M  V30 56 1 74 75
M  V30 57 1 76 77
M  V30 58 1 77 78
M  V30 59 1 79 80
M  V30 60 1 80 81
M  V30 61 1 82 83
M  V30 62 1 83 84
M  V30 63 1 85 86
M  V30 64 1 86 87
M  V30 65 1 88 89
M  V30 66 1 89 90
M  V30 67 1 91 92
M  V30 68 1 92 93
M  V30 69 1 94 95
M  V30 70 1 95 96
M  V30 71 1 97 98
M  V30 72 1 98 99
M  V30 73 1 2 88
M  V30 74 1 3 94
M  V30 75 1 4 91
M  V30 76 1 5 52
M  V30 77 1 7 82
M  V30 78 1 8 55
M  V30 79 1 9 97
M  V30 80 1 10 49
M  V30 81 1 12 76
M  V30 82 1 13 79
M  V30 83 1 14 96
M  V30 84 1 15 54
M  V30 85 1 17 70
M  V30 86 1 18 61
M  V30 87 1 19 67
M  V30 88 1 20 85
M  V30 89 1 22 58
M  V30 90 1 23 93
M  V30 91 1 24 90
M  V30 92 1 25 51
M  V30 93 1 27 46
M  V30 94 1 28 63
M  V30 95 1 29 73
M  V30 96 1 30 64
M  V30 97 1 32 57
M  V30 98 1 33 78
M  V30 99 1 34 99
M  V30 100 1 35 81
M  V30 101 1 37 48
M  V30 102 1 38 66
M  V30 103 1 39 84
M  V30 104 1 40 75
M  V30 105 1 42 87
M  V30 106 1 43 69
M  V30 107 1 44 72
M  V30 108 1 45 60
M  V30 END BOND
M  V30 END CTAB
M  END

$$$$
