
     RDKit          3D

  0  0  0  0  0  0  0  0  0  0999 V3000
M  V30 BEGIN CTAB
M  V30 COUNTS 99 108 0 0 0
M  V30 BEGIN ATOM
M  V30 1 Pd -0.9676 -4.8765 0.3874 0
M  V30 2 Pb -0.7504 -5.1176 -0.5593 0
M  V30 3 Pb -1.2024 -4.6908 1.3458 0
M  V30 4 Pb -0.3191 -5.5482 0.7502 0
M  V30 5 Pb -1.5504 -4.1653 -0.0130 0
M  V30 6 Pd -5.6687 2.9602 3.8811 0
M  V30 7 Pb -5.2538 3.8024 3.5424 0
M  V30 8 Pb -6.0320 2.0781 4.2192 0
M  V30 9 Pb -6.3560 2.9978 3.1503 0
M  V30 10 Pb -4.9840 2.9172 4.6034 0
M  V30 11 Pd 3.9988 3.4542 -3.7539 0
M  V30 12 Pb 4.6191 2.6876 -3.9166 0
M  V30 13 Pb 3.3806 4.2397 -3.6656 0
M  V30 14 Pb 4.6878 3.8833 -3.1670 0
M  V30 15 Pb 3.3376 2.9674 -4.3269 0
M  V30 16 Pd 5.5610 2.3249 1.1710 0
M  V30 17 Pb 5.9468 2.9512 0.4915 0
M  V30 18 Pb 5.1337 1.6750 1.8070 0
M  V30 19 Pb 4.9987 3.0877 1.4830 0
M  V30 20 Pb 6.1036 1.5568 0.8397 0
M  V30 21 Pd -0.4846 6.0570 -0.9623 0
M  V30 22 Pb -1.1444 6.1247 -0.2147 0
M  V30 23 Pb 0.1686 6.0601 -1.7239 0
M  V30 24 Pb 0.2620 6.1660 -0.3099 0
M  V30 25 Pb -1.2476 5.8460 -1.5718 0
M  V30 26 Pd 4.4116 -4.8565 1.1775 0
M  V30 27 Pb 4.1717 -4.1636 1.8614 0
M  V30 28 Pb 4.6441 -5.4556 0.4146 0
M  V30 29 Pb 3.6513 -5.4618 1.4249 0
M  V30 30 Pb 5.1484 -4.2440 0.8978 0
M  V30 31 Pd 3.3350 -3.5125 -5.5657 0
M  V30 32 Pb 2.5038 -4.0458 -5.4280 0
M  V30 33 Pb 3.8421 -4.2835 -5.1867 0
M  V30 34 Pb 2.8187 -2.6996 -5.8393 0
M  V30 35 Pb 4.1475 -2.9341 -5.5495 0
M  V30 36 Pd -6.0068 0.9938 -1.0820 0
M  V30 37 Pb -5.6230 1.7928 -1.5487 0
M  V30 38 Pb -6.3628 0.1761 -0.6372 0
M  V30 39 Pb -6.6478 1.5757 -0.5801 0
M  V30 40 Pb -5.3171 0.3930 -1.4823 0
M  V30 41 Pd -4.2366 -2.5998 4.7298 0
M  V30 42 Pb -4.9601 -1.9104 4.8936 0
M  V30 43 Pb -3.4915 -3.2299 4.5121 0
M  V30 44 Pb -4.8091 -2.9482 3.9950 0
M  V30 45 Pb -3.6757 -2.1590 5.4242 0
M  V30 46 Ag -4.9039 4.4122 3.2868 0
M  V30 47 Fe -3.2831 5.3204 1.8096 0
M  V30 48 Ag -1.6572 6.2080 0.3255 0
M  V30 49 Ag -0.6321 -5.2708 -1.2849 0
M  V30 50 Fe 0.5890 -4.9096 -3.2889 0
M  V30 51 Ag 1.9112 -4.4431 -5.2048 0
M  V30 52 Ag -1.8489 5.6240 -1.9599 0
M  V30 53 Fe -3.6142 4.0346 -1.9985 0
M  V30 54 Ag -5.3197 2.3835 -1.9010 0
M  V30 55 Ag 4.5818 3.6871 1.6442 0
M  V30 56 Fe 2.7123 4.9962 0.9981 0
M  V30 57 Ag 0.8111 6.1669 0.1973 0
M  V30 58 Ag 4.8300 1.1290 2.2309 0
M  V30 59 Fe 4.3826 -1.2046 2.3754 0
M  V30 60 Ag 4.0469 -3.5598 2.2945 0
M  V30 61 Ag 2.8995 2.5247 -4.7473 0
M  V30 62 Fe 2.5792 0.2743 -5.4414 0
M  V30 63 Ag 2.4846 -2.0402 -5.9735 0
M  V30 64 Ag -4.4845 2.7430 5.1253 0
M  V30 65 Fe -3.5977 0.6826 5.8556 0
M  V30 66 Ag -3.3400 -1.6617 5.8595 0
M  V30 67 Ag 5.0418 2.0976 -4.1035 0
M  V30 68 Fe 5.0140 -0.1736 -4.7912 0
M  V30 69 Ag 4.6907 -2.4297 -5.4520 0
M  V30 70 Ag 6.4468 0.9267 0.6323 0
M  V30 71 Fe 6.1818 -1.4298 0.6016 0
M  V30 72 Ag 5.6640 -3.7424 0.6931 0
M  V30 73 Ag -1.9054 -3.6534 -0.4374 0
M  V30 74 Fe -3.3685 -1.8736 -1.0223 0
M  V30 75 Ag -4.8010 -0.1027 -1.7032 0
M  V30 76 Ag -6.5432 -0.4709 -0.3115 0
M  V30 77 Fe -6.0316 -1.9094 1.4996 0
M  V30 78 Ag -5.2715 -3.0632 3.4235 0
M  V30 79 Ag 4.8050 -5.8062 -0.2252 0
M  V30 80 Fe 4.5851 -5.5036 -2.5665 0
M  V30 81 Ag 4.1682 -4.8356 -4.8030 0
M  V30 82 Ba -6.2990 1.4241 4.5050 0
M  V30 83 Ga -5.8611 0.0164 4.7256 0
M  V30 84 Ba -5.5276 -1.4112 4.9949 0
M  V30 85 Ba 5.2315 4.1571 -2.7257 0
M  V30 86 Ga 5.7207 3.8142 -1.3743 0
M  V30 87 Ba 6.1852 3.4471 -0.0205 0
M  V30 88 Ba -6.8703 3.0387 2.6005 0
M  V30 89 Ga -6.9929 2.5243 1.2197 0
M  V30 90 Ba -7.1010 2.0022 -0.1595 0
M  V30 91 Ba 0.1772 -6.0207 1.0594 0
M  V30 92 Ga 1.6329 -5.9771 1.3141 0
M  V30 93 Ba 3.0881 -5.9394 1.5721 0
M  V30 94 Ba -1.3025 -4.6690 2.0933 0
M  V30 95 Ga -2.1501 -4.1321 3.1782 0
M  V30 96 Ba -2.9041 -3.6715 4.3631 0
M  V30 97 Ba 2.9308 4.8440 -3.6678 0
M  V30 98 Ga 1.7876 5.4302 -2.9346 0
M  V30 99 Ba 0.6501 6.1298 -2.2990 0
M  V30 END ATOM
M  V30 BEGIN BOND
M  V30 1 1 1 2
M  V30 2 1 1 3
M  V30 3 1 1 4
M  V30 4 1 1 5
M  V30 5 1 6 7
M  V30 6 1 6 8
M  V30 7 1 6 9
M  V30 8 1 6 10
M  V30 9 1 11 12
M  V30 10 1 11 13
M  V30 11 1 11 14
M  V30 12 1 11 15
M  V30 13 1 16 17
M  V30 14 1 16 18
M  V30 15 1 16 19
M  V30 16 1 16 20
M  V30 17 1 21 22
M  V30 18 1 21 23
M  V30 19 1 21 24
M  V30 20 1 21 25
M  V30 21 1 26 27
M  V30 22 1 26 28
M  V30 23 1 26 29
M  V30 24 1 26 30
M  V30 25 1 31 32
M  V30 26 1 31 33
M  V30 27 1 31 34
M  V30 28 1 31 35
M  V30 29 1 36 37
M  V30 30 1 36 38
M  V30 31 1 36 39
M  V30 32 1 36 40
M  V30 33 1 41 42
M  V30 34 1 41 43
M  V30 35 1 41 44
M  V30 36 1 41 45
M  V30 37 1 46 47
M  V30 38 1 47 48
M  V30 39 1 49 50
M  V30 40 1 50 51
M  V30 41 1 52 53
M  V30 42 1 53 54
M  V30 43 1 55 56
M  V30 44 1 56 57
M  V30 45 1 58 59
M  V30 46 1 59 60
M  V30 47 1 61 62
M  V30 48 1 62 63
M  V30 49 1 64 65
M  V30 50 1 65 66
M  V30 51 1 67 68
M  V30 52 1 68 69
M  V30 53 1 70 71
M  V30 54 1 71 72
M  V30 55 1 73 74
M  V30 56 1 74 75
M  V30 57 1 76 77
M  V30 58 1 77 78
M  V30 59 1 79 80
M  V30 60 1 80 81
M  V30 61 1 82 83
M  V30 62 1 83 84
M  V30 63 1 85 86
M  V30 64 1 86 87
M  V30 65 1 88 89
M  V30 66 1 89 90
M  V30 67 1 91 92
M  V30 68 1 92 93
M  V30 69 1 94 95
M  V30 70 1 95 96
M  V30 71 1 97 98
M  V30 72 1 98 99
M  V30 73 1 2 49
M  V30 74 1 3 94
M  V30 75 1 4 91
M  V30 76 1 5 73
M  V30 77 1 7 46
M  V30 78 1 8 82
M  V30 79 1 9 88
M  V30 80 1 10 64
M  V30 81 1 12 67
M  V30 82 1 13 97
M  V30 83 1 14 85
M  V30 84 1 15 61
M  V30 85 1 17 87
M  V30 86 1 18 58
M  V30 87 1 19 55
M  V30 88 1 20 70
M  V30 89 1 22 48
M  V30 90 1 23 99
M  V30 91 1 24 57
M  V30 92 1 25 52
M  V30 93 1 27 60
M  V30 94 1 28 79
M  V30 95 1 29 93
M  V30 96 1 30 72
M  V30 97 1 32 51
M  V30 98 1 33 81
M  V30 99 1 34 63
M  V30 100 1 35 69
M  V30 101 1 37 54
M  V30 102 1 38 76
M  V30 103 1 39 90
M  V30 104 1 40 75
M  V30 105 1 42 84
M  V30 106 1 43 96
M  V30 107 1 44 78
M  V30 108 1 45 66
M  V30 END BOND
M  V30 END CTAB
M  END

$$$$
