
     RDKit          3D

  0  0  0  0  0  0  0  0  0  0999 V3000
M  V30 BEGIN CTAB
M  V30 COUNTS 99 108 0 0 0
M  V30 BEGIN ATOM
M  V30 1 Pd 4.4787 -2.3979 -2.4935 0
M  V30 2 Pb 4.9197 -2.2418 -1.6082 0
M  V30 3 Pb 5.0767 -1.7053 -2.8987 0
M  V30 4 Pb 3.9920 -3.1741 -2.0964 0
M  V30 5 Pb 3.9772 -2.5410 -3.3511 0
M  V30 6 Pd -0.4318 4.7876 -3.8731 0
M  V30 7 Pb -1.2608 4.8120 -3.3159 0
M  V30 8 Pb 0.3909 4.8299 -4.4511 0
M  V30 9 Pb -0.9040 4.3456 -4.6341 0
M  V30 10 Pb 0.1131 5.1545 -3.1229 0
M  V30 11 Pd -2.8409 1.9686 6.2442 0
M  V30 12 Pb -2.4099 1.2209 6.7489 0
M  V30 13 Pb -3.2654 2.6667 5.6718 0
M  V30 14 Pb -3.7627 1.6427 6.4503 0
M  V30 15 Pb -1.9191 2.2380 5.9626 0
M  V30 16 Pd -5.4469 -1.5626 3.5803 0
M  V30 17 Pb -5.7755 -0.9506 4.3010 0
M  V30 18 Pb -5.0993 -2.1993 2.8964 0
M  V30 19 Pb -5.9901 -1.1128 2.8700 0
M  V30 20 Pb -4.8688 -2.0338 4.2479 0
M  V30 21 Pd -4.7796 2.1255 -0.6978 0
M  V30 22 Pb -4.2673 2.8798 -1.1106 0
M  V30 23 Pb -4.9692 2.7379 0.0663 0
M  V30 24 Pb -5.3931 1.4450 -0.2875 0
M  V30 25 Pb -4.4912 1.4759 -1.4054 0
M  V30 26 Pd 0.4800 -5.7286 3.1566 0
M  V30 27 Pb -0.3338 -5.6138 2.5920 0
M  V30 28 Pb 1.3036 -5.7817 3.7208 0
M  V30 29 Pb 1.0037 -5.9299 2.3331 0
M  V30 30 Pb -0.0728 -5.4417 3.9388 0
M  V30 31 Pd 3.2293 -1.8018 5.0341 0
M  V30 32 Pb 3.9127 -1.7539 4.3032 0
M  V30 33 Pb 3.4034 -2.7817 5.1334 0
M  V30 34 Pb 3.0026 -0.8321 4.9352 0
M  V30 35 Pb 2.5161 -1.8386 5.7348 0
M  V30 36 Pd 0.4951 -0.0396 -5.9285 0
M  V30 37 Pb -0.2941 -0.3147 -5.3752 0
M  V30 38 Pb 1.2693 0.2335 -6.5022 0
M  V30 39 Pb -0.0418 0.7691 -6.1846 0
M  V30 40 Pb 1.0162 -0.8717 -5.7127 0
M  V30 41 Pd 4.8502 2.6702 -4.9506 0
M  V30 42 Pb 4.1923 3.3695 -5.2449 0
M  V30 43 Pb 5.4744 1.9535 -4.6509 0
M  V30 44 Pb 4.6387 2.1634 -5.7840 0
M  V30 45 Pb 4.9715 3.1801 -4.1022 0
M  V30 46 Ag 5.2148 -2.1192 -0.9281 0
M  V30 47 Fe 4.8502 -1.9187 1.4121 0
M  V30 48 Ag 4.4108 -1.7318 3.7405 0
M  V30 49 Ag -4.2323 0.9592 -1.8885 0
M  V30 50 Fe -2.5849 0.2339 -3.4432 0
M  V30 51 Ag -0.9254 -0.4687 -4.9954 0
M  V30 52 Ag -4.7906 -2.7039 2.4407 0
M  V30 53 Fe -2.9195 -4.1384 2.1934 0
M  V30 54 Ag -0.9541 -5.4641 2.2040 0
M  V30 55 Ag -1.2100 2.3480 5.7413 0
M  V30 56 Fe 0.8365 1.2292 5.2874 0
M  V30 57 Ag 2.7511 -0.1252 4.9058 0
M  V30 58 Ag 0.6629 5.3217 -2.6505 0
M  V30 59 Fe 2.9357 4.6773 -2.6803 0
M  V30 60 Ag 4.8747 3.6026 -3.4974 0
M  V30 61 Ag -2.0184 0.6584 7.0530 0
M  V30 62 Fe -0.0584 -0.6496 6.7551 0
M  V30 63 Ag 1.9496 -1.8023 6.2257 0
M  V30 64 Ag -4.3996 -2.4185 4.6904 0
M  V30 65 Fe -2.4726 -3.8076 4.7109 0
M  V30 66 Ag -0.5417 -5.1676 4.4561 0
M  V30 67 Ag 3.6945 -3.7933 -1.7984 0
M  V30 68 Fe 2.5316 -4.9291 -0.0704 0
M  V30 69 Ag 1.3595 -6.0164 1.6825 0
M  V30 70 Ag -3.6225 3.1187 5.1956 0
M  V30 71 Fe -4.3891 3.2839 2.9575 0
M  V30 72 Ag -5.0239 3.1670 0.6756 0
M  V30 73 Ba -1.8807 4.9012 -2.9050 0
M  V30 74 Ga -2.8858 4.1233 -2.1558 0
M  V30 75 Ba -3.9772 3.5246 -1.3644 0
M  V30 76 Ba -6.3807 -0.8233 2.2972 0
M  V30 77 Ga -6.1117 0.0943 1.1693 0
M  V30 78 Ba -5.9200 0.9987 0.0154 0
M  V30 79 Ba 0.9865 4.9174 -4.9087 0
M  V30 80 Ga 2.3394 4.3660 -5.1538 0
M  V30 81 Ba 3.7029 3.8905 -5.4849 0
M  V30 82 Ba -4.4690 1.4034 6.5257 0
M  V30 83 Ga -5.2580 0.4466 5.7259 0
M  V30 84 Ba -5.9839 -0.5216 4.8814 0
M  V30 85 Ba -1.1801 3.9806 -5.2274 0
M  V30 86 Ga -0.8472 2.6622 -5.8054 0
M  V30 87 Ba -0.4972 1.3414 -6.3680 0
M  V30 88 Ba 3.5650 -2.6920 -3.9639 0
M  V30 89 Ga 2.4983 -2.0512 -4.7668 0
M  V30 90 Ba 1.4298 -1.4982 -5.6303 0
M  V30 91 Ba 1.8707 0.3942 -6.9237 0
M  V30 92 Ga 3.1474 1.0944 -6.6873 0
M  V30 93 Ba 4.4068 1.8066 -6.3996 0
M  V30 94 Ba 5.5995 -1.2390 -3.1700 0
M  V30 95 Ga 5.7301 0.0868 -3.8000 0
M  V30 96 Ba 5.9290 1.4030 -4.4327 0
M  V30 97 Ba 1.9257 -5.7787 4.1391 0
M  V30 98 Ga 2.7386 -4.6750 4.6833 0
M  V30 99 Ba 3.5035 -3.5226 5.1955 0
M  V30 END ATOM
M  V30 BEGIN BOND
M  V30 1 1 1 2
M  V30 2 1 1 3
M  V30 3 1 1 4
M  V30 4 1 1 5
M  V30 5 1 6 7
M  V30 6 1 6 8
M  V30 7 1 6 9
M  V30 8 1 6 10
M  V30 9 1 11 12
M  V30 10 1 11 13
M  V30 11 1 11 14
M  V30 12 1 11 15
M  V30 13 1 16 17
M  V30 14 1 16 18
M  V30 15 1 16 19
M  V30 16 1 16 20
M  V30 17 1 21 22
M  V30 18 1 21 23
M  V30 19 1 21 24
M  V30 20 1 21 25
M  V30 21 1 26 27
M  V30 22 1 26 28
M  V30 23 1 26 29
M  V30 24 1 26 30
M  V30 25 1 31 32
M  V30 26 1 31 33
M  V30 27 1 31 34
M  V30 28 1 31 35
M  V30 29 1 36 37
M  V30 30 1 36 38
M  V30 31 1 36 39
M  V30 32 1 36 40
M  V30 33 1 41 42
M  V30 34 1 41 43
M  V30 35 1 41 44
M  V30 36 1 41 45
M  V30 37 1 46 47
M  V30 38 1 47 48
M  V30 39 1 49 50
M  V30 40 1 50 51
M  V30 41 1 52 53
M  V30 42 1 53 54
M  V30 43 1 55 56
M  V30 44 1 56 57
M  V30 45 1 58 59
M  V30 46 1 59 60
M  V30 47 1 61 62
M  V30 48 1 62 63
M  V30 49 1 64 65
M  V30 50 1 65 66
M  V30 51 1 67 68
M  V30 52 1 68 69
M  V30 53 1 70 71
M  V30 54 1 71 72
M  V30 55 1 73 74
M  V30 56 1 74 75
M  V30 57 1 76 77
M  V30 58 1 77 78
M  V30 59 1 79 80
M  V30 60 1 80 81
M  V30 61 1 82 83
M  V30 62 1 83 84
M  V30 63 1 85 86
M  V30 64 1 86 87
M  V30 65 1 88 89
M  V30 66 1 89 90
M  V30 67 1 91 92
M  V30 68 1 92 93
M  V30 69 1 94 95
M  V30 70 1 95 96
M  V30 71 1 97 98
M  V30 72 1 98 99
M  V30 73 1 2 46
M  V30 74 1 3 94
M  V30 75 1 4 67
M  V30 76 1 5 88
M  V30 77 1 7 73
M  V30 78 1 8 79
M  V30 79 1 9 85
M  V30 80 1 10 58
M  V30 81 1 12 61
M  V30 82 1 13 70
M  V30 83 1 14 82
M  V30 84 1 15 55
M  V30 85 1 17 84
M  V30 86 1 18 52
M  V30 87 1 19 76
M  V30 88 1 20 64
M  V30 89 1 22 75
M  V30 90 1 23 72
M  V30 91 1 24 78
M  V30 92 1 25 49
M  V30 93 1 27 54
M  V30 94 1 28 97
M  V30 95 1 29 69
M  V30 96 1 30 66
M  V30 97 1 32 48
M  V30 98 1 33 99
M  V30 99 1 34 57
M  V30 100 1 35 63
M  V30 101 1 37 51
M  V30 102 1 38 91
M  V30 103 1 39 87
M  V30 104 1 40 90
M  V30 105 1 42 81
M  V30 106 1 43 96
M  V30 107 1 44 93
M  V30 108 1 45 60
M  V30 END BOND
M  V30 END CTAB
M  END

$$$$
