
     RDKit          3D

  0  0  0  0  0  0  0  0  0  0999 V3000
M  V30 BEGIN CTAB
M  V30 COUNTS 99 108 0 0 0
M  V30 BEGIN ATOM
M  V30 1 Pd -0.3939 3.1619 2.3886 0
M  V30 2 Pb -0.2961 3.9230 1.7436 0
M  V30 3 Pb 0.6043 3.1898 2.4932 0
M  V30 4 Pb -1.3861 3.1900 2.2775 0
M  V30 5 Pb -0.5375 2.4228 3.0515 0
M  V30 6 Pd 6.1724 -3.4446 2.2222 0
M  V30 7 Pb 5.7393 -3.9477 1.4717 0
M  V30 8 Pb 6.6174 -2.9682 2.9737 0
M  V30 9 Pb 5.9343 -4.1654 2.8713 0
M  V30 10 Pb 6.3209 -2.6312 1.6517 0
M  V30 11 Pd 0.7653 -0.1684 -5.1336 0
M  V30 12 Pb 0.9652 0.7626 -4.7713 0
M  V30 13 Pb 1.4022 -0.5804 -4.4825 0
M  V30 14 Pb 0.4404 -1.0641 -5.4260 0
M  V30 15 Pb 0.1407 0.2246 -5.7962 0
M  V30 16 Pd -5.6561 -2.0360 -3.8698 0
M  V30 17 Pb -5.0029 -2.5407 -4.4310 0
M  V30 18 Pb -6.2642 -1.4715 -3.2945 0
M  V30 19 Pb -5.0955 -2.2472 -3.0696 0
M  V30 20 Pb -6.1445 -1.6930 -4.6683 0
M  V30 21 Pd 1.3007 -3.8835 -0.6512 0
M  V30 22 Pb 2.2079 -4.3014 -0.5752 0
M  V30 23 Pb 1.6960 -3.2498 -1.3194 0
M  V30 24 Pb 0.3767 -3.5033 -0.7152 0
M  V30 25 Pb 0.9346 -4.4685 0.0719 0
M  V30 26 Pd -6.5495 3.4111 -2.2454 0
M  V30 27 Pb -6.8976 2.4699 -2.1281 0
M  V30 28 Pb -6.1590 4.3264 -2.3550 0
M  V30 29 Pb -6.2213 3.4103 -1.3030 0
M  V30 30 Pb -6.8613 3.3694 -3.1922 0
M  V30 31 Pd -1.5492 4.9191 -2.9725 0
M  V30 32 Pb -1.1358 5.1787 -2.0967 0
M  V30 33 Pb -2.3717 5.4544 -2.7726 0
M  V30 34 Pb -1.9487 4.7067 -3.8551 0
M  V30 35 Pb -0.7316 4.3538 -3.2080 0
M  V30 36 Pd 0.7470 -3.3340 6.5251 0
M  V30 37 Pb 0.3283 -3.9820 5.8917 0
M  V30 38 Pb 1.2283 -2.6271 7.0398 0
M  V30 39 Pb 1.5142 -3.9701 6.5890 0
M  V30 40 Pb 0.0536 -2.6422 6.3308 0
M  V30 41 Pd 5.1516 1.2287 3.7956 0
M  V30 42 Pb 5.8129 0.5965 4.1870 0
M  V30 43 Pb 4.5169 1.9043 3.4154 0
M  V30 44 Pb 4.7427 1.3044 4.7030 0
M  V30 45 Pb 5.5251 1.0161 2.8871 0
M  V30 46 Ag 0.6321 -4.8335 0.6523 0
M  V30 47 Fe 0.2891 -4.7649 3.0000 0
M  V30 48 Ag 0.1078 -4.4423 5.3445 0
M  V30 49 Ag -4.6381 -2.3314 -2.4813 0
M  V30 50 Fe -2.4784 -2.8239 -1.6215 0
M  V30 51 Ag -0.3459 -3.2982 -0.6871 0
M  V30 52 Ag -0.3513 0.5971 -6.2014 0
M  V30 53 Fe -1.5415 2.5816 -5.7833 0
M  V30 54 Ag -2.1661 4.4621 -4.5169 0
M  V30 55 Ag -6.4805 -1.2456 -5.1579 0
M  V30 56 Fe -6.9801 1.0536 -4.9456 0
M  V30 57 Ag -7.0719 3.1577 -3.8744 0
M  V30 58 Ag 0.0546 -1.6754 -5.6104 0
M  V30 59 Fe -2.1571 -2.4799 -5.3283 0
M  V30 60 Ag -4.4366 -2.8602 -4.8003 0
M  V30 61 Ag 5.6951 -4.6033 3.4295 0
M  V30 62 Fe 3.9702 -4.6929 5.0570 0
M  V30 63 Ag 2.1032 -4.4229 6.4969 0
M  V30 64 Ag -2.1304 3.2213 2.2030 0
M  V30 65 Fe -4.0546 3.3107 0.8170 0
M  V30 66 Ag -5.9523 3.3988 -0.6051 0
M  V30 67 Ag -0.7541 1.8922 3.5411 0
M  V30 68 Fe -0.5616 -0.0914 4.8369 0
M  V30 69 Ag -0.3916 -2.0690 6.1450 0
M  V30 70 Ag 1.5878 -2.0260 7.3025 0
M  V30 71 Fe 3.0189 -0.2970 6.5342 0
M  V30 72 Ag 4.4305 1.2185 5.3773 0
M  V30 73 Ba 5.4365 -4.3568 0.9183 0
M  V30 74 Ga 4.1476 -4.4597 0.2037 0
M  V30 75 Ba 2.8885 -4.6195 -0.5525 0
M  V30 76 Ba -0.2074 4.5162 1.2896 0
M  V30 77 Ga -0.5322 4.9189 -0.0950 0
M  V30 78 Ba -0.8112 5.4136 -1.4596 0
M  V30 79 Ba -6.7238 -1.0510 -2.8601 0
M  V30 80 Ga -6.9087 0.3735 -2.4732 0
M  V30 81 Ba -7.1728 1.7683 -2.0287 0
M  V30 82 Ba 6.4030 -1.9724 1.2916 0
M  V30 83 Ga 6.1164 -0.5813 1.7205 0
M  V30 84 Ba 5.8029 0.7779 2.2258 0
M  V30 85 Ba 6.9292 -2.5952 3.5376 0
M  V30 86 Ga 6.6620 -1.2452 4.0440 0
M  V30 87 Ba 6.3105 0.1155 4.4628 0
M  V30 88 Ba 1.1172 1.4594 -4.4840 0
M  V30 89 Ga 0.4368 2.6821 -3.9464 0
M  V30 90 Ba -0.0875 3.9693 -3.3856 0
M  V30 91 Ba 1.3454 3.3298 2.5016 0
M  V30 92 Ga 2.6798 2.7998 2.8537 0
M  V30 93 Ba 4.0904 2.4545 3.1319 0
M  V30 94 Ba -5.8304 5.0012 -2.3906 0
M  V30 95 Ga -4.4260 5.4379 -2.5301 0
M  V30 96 Ba -3.0107 5.8370 -2.6718 0
M  V30 97 Ba 1.9026 -0.8820 -4.0132 0
M  V30 98 Ga 1.9250 -1.8450 -2.8943 0
M  V30 99 Ba 2.0833 -2.7869 -1.7688 0
M  V30 END ATOM
M  V30 BEGIN BOND
M  V30 1 1 1 2
M  V30 2 1 1 3
M  V30 3 1 1 4
M  V30 4 1 1 5
M  V30 5 1 6 7
M  V30 6 1 6 8
M  V30 7 1 6 9
M  V30 8 1 6 10
M  V30 9 1 11 12
M  V30 10 1 11 13
M  V30 11 1 11 14
M  V30 12 1 11 15
M  V30 13 1 16 17
M  V30 14 1 16 18
M  V30 15 1 16 19
M  V30 16 1 16 20
M  V30 17 1 21 22
M  V30 18 1 21 23
M  V30 19 1 21 24
M  V30 20 1 21 25
M  V30 21 1 26 27
M  V30 22 1 26 28
M  V30 23 1 26 29
M  V30 24 1 26 30
M  V30 25 1 31 32
M  V30 26 1 31 33
M  V30 27 1 31 34
M  V30 28 1 31 35
M  V30 29 1 36 37
M  V30 30 1 36 38
M  V30 31 1 36 39
M  V30 32 1 36 40
M  V30 33 1 41 42
M  V30 34 1 41 43
M  V30 35 1 41 44
M  V30 36 1 41 45
M  V30 37 1 46 47
M  V30 38 1 47 48
M  V30 39 1 49 50
M  V30 40 1 50 51
M  V30 41 1 52 53
M  V30 42 1 53 54
M  V30 43 1 55 56
M  V30 44 1 56 57
M  V30 45 1 58 59
M  V30 46 1 59 60
M  V30 47 1 61 62
M  V30 48 1 62 63
M  V30 49 1 64 65
M  V30 50 1 65 66
M  V30 51 1 67 68
M  V30 52 1 68 69
M  V30 53 1 70 71
M  V30 54 1 71 72
M  V30 55 1 73 74
M  V30 56 1 74 75
M  V30 57 1 76 77
M  V30 58 1 77 78
M  V30 59 1 79 80
M  V30 60 1 80 81
M  V30 61 1 82 83
M  V30 62 1 83 84
M  V30 63 1 85 86
M  V30 64 1 86 87
M  V30 65 1 88 89
M  V30 66 1 89 90
M  V30 67 1 91 92
M  V30 68 1 92 93
M  V30 69 1 94 95
M  V30 70 1 95 96
M  V30 71 1 97 98
M  V30 72 1 98 99
M  V30 73 1 2 76
M  V30 74 1 3 91
M  V30 75 1 4 64
M  V30 76 1 5 67
M  V30 77 1 7 73
M  V30 78 1 8 85
M  V30 79 1 9 61
M  V30 80 1 10 82
M  V30 81 1 12 88
M  V30 82 1 13 97
M  V30 83 1 14 58
M  V30 84 1 15 52
M  V30 85 1 17 60
M  V30 86 1 18 79
M  V30 87 1 19 49
M  V30 88 1 20 55
M  V30 89 1 22 75
M  V30 90 1 23 99
M  V30 91 1 24 51
M  V30 92 1 25 46
M  V30 93 1 27 81
M  V30 94 1 28 94
M  V30 95 1 29 66
M  V30 96 1 30 57
M  V30 97 1 32 78
M  V30 98 1 33 96
M  V30 99 1 34 54
M  V30 100 1 35 90
M  V30 101 1 37 48
M  V30 102 1 38 70
M  V30 103 1 39 63
M  V30 104 1 40 69
M  V30 105 1 42 87
M  V30 106 1 43 93
M  V30 107 1 44 72
M  V30 108 1 45 84
M  V30 END BOND
M  V30 END CTAB
M  END

$$$$
