
     RDKit          3D

  0  0  0  0  0  0  0  0  0  0999 V3000
M  V30 BEGIN CTAB
M  V30 COUNTS 99 108 0 0 0
M  V30 BEGIN ATOM
M  V30 1 Pd 2.0473 1.3952 1.9375 0
M  V30 2 Pb 1.5124 1.0813 2.7195 0
M  V30 3 Pb 1.2168 1.8027 1.5558 0
M  V30 4 Pb 2.8356 0.9374 2.3461 0
M  V30 5 Pb 2.5859 1.6048 1.1166 0
M  V30 6 Pd -3.6859 7.9623 -0.7205 0
M  V30 7 Pb -3.7754 7.1835 -1.3428 0
M  V30 8 Pb -3.5821 8.7241 -0.0836 0
M  V30 9 Pb -3.0253 8.3605 -1.3529 0
M  V30 10 Pb -4.1714 7.4550 0.0044 0
M  V30 11 Pd -3.9349 -5.0386 -0.8428 0
M  V30 12 Pb -3.9761 -4.7343 0.1257 0
M  V30 13 Pb -3.9899 -4.0957 -1.1773 0
M  V30 14 Pb -3.7714 -5.3514 -1.7751 0
M  V30 15 Pb -3.8669 -5.9788 -0.5280 0
M  V30 16 Pd 2.2856 -5.5960 -4.1059 0
M  V30 17 Pb 1.3732 -5.8579 -4.4128 0
M  V30 18 Pb 2.3022 -6.3411 -3.4351 0
M  V30 19 Pb 2.2273 -4.7712 -4.6668 0
M  V30 20 Pb 3.1599 -5.3050 -3.7260 0
M  V30 21 Pd -0.9439 1.4449 -4.3243 0
M  V30 22 Pb -1.5590 2.1969 -4.0777 0
M  V30 23 Pb -1.6186 0.8185 -3.9256 0
M  V30 24 Pb -0.3646 0.6917 -4.6441 0
M  V30 25 Pb -0.2702 2.0838 -4.7021 0
M  V30 26 Pd 4.1927 -5.4866 2.7317 0
M  V30 27 Pb 3.8185 -6.2639 2.2227 0
M  V30 28 Pb 3.6742 -5.7090 3.5607 0
M  V30 29 Pb 4.5200 -4.6385 3.1431 0
M  V30 30 Pb 4.6780 -5.2445 1.8940 0
M  V30 31 Pd -1.0093 -5.0511 4.2933 0
M  V30 32 Pb -0.8366 -4.0941 4.5269 0
M  V30 33 Pb -0.1616 -5.3348 4.7464 0
M  V30 34 Pb -1.1983 -5.9999 4.0656 0
M  V30 35 Pb -1.8477 -4.7731 3.7863 0
M  V30 36 Pd 2.6085 4.9878 -2.2762 0
M  V30 37 Pb 2.4151 4.6733 -3.2066 0
M  V30 38 Pb 2.7531 5.2575 -1.3252 0
M  V30 39 Pb 2.1344 5.8449 -2.4852 0
M  V30 40 Pb 3.0462 4.1214 -2.0415 0
M  V30 41 Pd -1.5864 5.3534 3.3531 0
M  V30 42 Pb -1.6540 6.1926 3.8891 0
M  V30 43 Pb -1.5031 4.5884 2.7114 0
M  V30 44 Pb -0.5928 5.3772 3.4171 0
M  V30 45 Pb -2.5614 5.4494 3.1089 0
M  V30 46 Ag -3.8326 6.6037 -1.8166 0
M  V30 47 Fe -2.9046 4.6712 -2.8434 0
M  V30 48 Ag -2.0715 2.7270 -3.9275 0
M  V30 49 Ag 1.1272 0.7667 3.2785 0
M  V30 50 Fe 0.1769 -1.2683 4.0476 0
M  V30 51 Ag -0.7220 -3.3703 4.6877 0
M  V30 52 Ag 2.1437 -4.1196 -5.0275 0
M  V30 53 Fe 1.1114 -1.9794 -4.9893 0
M  V30 54 Ag 0.0759 0.1592 -4.9425 0
M  V30 55 Ag 2.3348 -6.8206 -2.8554 0
M  V30 56 Fe 2.9034 -6.9545 -0.5496 0
M  V30 57 Ag 3.5505 -6.7666 1.7314 0
M  V30 58 Ag -3.7366 -6.6249 -0.1908 0
M  V30 59 Fe -2.6114 -7.1400 1.8129 0
M  V30 60 Ag -1.4156 -6.6476 3.7810 0
M  V30 61 Ag -3.4639 9.1581 0.5090 0
M  V30 62 Fe -2.6212 8.5480 2.6241 0
M  V30 63 Ag -1.7665 6.9018 4.0773 0
M  V30 64 Ag 3.7686 -5.1169 -3.3374 0
M  V30 65 Fe 4.5413 -5.0330 -1.0977 0
M  V30 66 Ag 4.9818 -5.0776 1.2315 0
M  V30 67 Ag -3.5367 -5.5861 -2.4435 0
M  V30 68 Fe -1.5272 -5.8686 -3.6689 0
M  V30 69 Ag 0.6590 -6.0056 -4.5753 0
M  V30 70 Ag -2.4320 8.5383 -1.7717 0
M  V30 71 Fe -0.3055 7.6268 -2.3054 0
M  V30 72 Ag 1.7370 6.4631 -2.6424 0
M  V30 73 Ag 3.3720 0.5364 2.6812 0
M  V30 74 Fe 4.1585 -1.6626 3.1014 0
M  V30 75 Ag 4.7262 -3.9523 3.3574 0
M  V30 76 Ag 2.8217 5.3801 -0.5895 0
M  V30 77 Fe 1.6403 5.4456 1.4662 0
M  V30 78 Ag 0.1414 5.4449 3.3040 0
M  V30 79 Ag -4.0359 -3.3990 -1.4565 0
M  V30 80 Fe -3.0479 -1.5224 -2.5323 0
M  V30 81 Ag -2.1609 0.4064 -3.6037 0
M  V30 82 Ba 0.2510 2.5443 -4.9892 0
M  V30 83 Ga 1.2441 3.4922 -4.4433 0
M  V30 84 Ba 2.2373 4.4407 -3.8982 0
M  V30 85 Ba -4.4663 7.0516 0.5777 0
M  V30 86 Ga -3.8800 6.3064 1.7274 0
M  V30 87 Ba -3.2743 5.5666 2.8707 0
M  V30 88 Ba -4.0037 -4.5097 0.8576 0
M  V30 89 Ga -3.1928 -4.5648 2.1135 0
M  V30 90 Ba -2.4912 -4.5455 3.4344 0
M  V30 91 Ba 3.0108 1.6855 0.4988 0
M  V30 92 Ga 3.1721 2.5972 -0.6522 0
M  V30 93 Ba 3.3677 3.4830 -1.8182 0
M  V30 94 Ba 0.5571 2.0613 1.3068 0
M  V30 95 Ga -0.4252 3.0692 1.7561 0
M  V30 96 Ba -1.4318 4.0663 2.1746 0
M  V30 97 Ba 3.2871 -5.8527 4.1902 0
M  V30 98 Ga 1.8811 -5.7084 4.6242 0
M  V30 99 Ba 0.4776 -5.5678 5.0673 0
M  V30 END ATOM
M  V30 BEGIN BOND
M  V30 1 1 1 2
M  V30 2 1 1 3
M  V30 3 1 1 4
M  V30 4 1 1 5
M  V30 5 1 6 7
M  V30 6 1 6 8
M  V30 7 1 6 9
M  V30 8 1 6 10
M  V30 9 1 11 12
M  V30 10 1 11 13
M  V30 11 1 11 14
M  V30 12 1 11 15
M  V30 13 1 16 17
M  V30 14 1 16 18
M  V30 15 1 16 19
M  V30 16 1 16 20
M  V30 17 1 21 22
M  V30 18 1 21 23
M  V30 19 1 21 24
M  V30 20 1 21 25
M  V30 21 1 26 27
M  V30 22 1 26 28
M  V30 23 1 26 29
M  V30 24 1 26 30
M  V30 25 1 31 32
M  V30 26 1 31 33
M  V30 27 1 31 34
M  V30 28 1 31 35
M  V30 29 1 36 37
M  V30 30 1 36 38
M  V30 31 1 36 39
M  V30 32 1 36 40
M  V30 33 1 41 42
M  V30 34 1 41 43
M  V30 35 1 41 44
M  V30 36 1 41 45
M  V30 37 1 46 47
M  V30 38 1 47 48
M  V30 39 1 49 50
M  V30 40 1 50 51
M  V30 41 1 52 53
M  V30 42 1 53 54
M  V30 43 1 55 56
M  V30 44 1 56 57
M  V30 45 1 58 59
M  V30 46 1 59 60
M  V30 47 1 61 62
M  V30 48 1 62 63
M  V30 49 1 64 65
M  V30 50 1 65 66
M  V30 51 1 67 68
M  V30 52 1 68 69
M  V30 53 1 70 71
M  V30 54 1 71 72
M  V30 55 1 73 74
M  V30 56 1 74 75
M  V30 57 1 76 77
M  V30 58 1 77 78
M  V30 59 1 79 80
M  V30 60 1 80 81
M  V30 61 1 82 83
M  V30 62 1 83 84
M  V30 63 1 85 86
M  V30 64 1 86 87
M  V30 65 1 88 89
M  V30 66 1 89 90
M  V30 67 1 91 92
M  V30 68 1 92 93
M  V30 69 1 94 95
M  V30 70 1 95 96
M  V30 71 1 97 98
M  V30 72 1 98 99
M  V30 73 1 2 49
M  V30 74 1 3 94
M  V30 75 1 4 73
M  V30 76 1 5 91
M  V30 77 1 7 46
M  V30 78 1 8 61
M  V30 79 1 9 70
M  V30 80 1 10 85
M  V30 81 1 12 88
M  V30 82 1 13 79
M  V30 83 1 14 67
M  V30 84 1 15 58
M  V30 85 1 17 69
M  V30 86 1 18 55
M  V30 87 1 19 52
M  V30 88 1 20 64
M  V30 89 1 22 48
M  V30 90 1 23 81
M  V30 91 1 24 54
M  V30 92 1 25 82
M  V30 93 1 27 57
M  V30 94 1 28 97
M  V30 95 1 29 75
M  V30 96 1 30 66
M  V30 97 1 32 51
M  V30 98 1 33 99
M  V30 99 1 34 60
M  V30 100 1 35 90
M  V30 101 1 37 84
M  V30 102 1 38 76
M  V30 103 1 39 72
M  V30 104 1 40 93
M  V30 105 1 42 63
M  V30 106 1 43 96
M  V30 107 1 44 78
M  V30 108 1 45 87
M  V30 END BOND
M  V30 END CTAB
M  END

$$$$
