
     RDKit          3D

  0  0  0  0  0  0  0  0  0  0999 V3000
M  V30 BEGIN CTAB
M  V30 COUNTS 99 108 0 0 0
M  V30 BEGIN ATOM
M  V30 1 Pd -5.0504 3.4067 -3.6595 0
M  V30 2 Pb -5.3477 3.3343 -2.7075 0
M  V30 3 Pb -4.7170 3.5280 -4.5963 0
M  V30 4 Pb -5.3890 4.3461 -3.6867 0
M  V30 5 Pb -4.7018 2.4670 -3.6355 0
M  V30 6 Pd -2.3055 7.2201 -4.9886 0
M  V30 7 Pb -1.3412 7.0429 -5.1784 0
M  V30 8 Pb -3.2652 7.3474 -4.7489 0
M  V30 9 Pb -2.5886 6.5517 -5.6764 0
M  V30 10 Pb -2.0271 7.7864 -4.2147 0
M  V30 11 Pd -2.5479 -4.0516 1.1500 0
M  V30 12 Pb -2.6524 -3.5670 2.0175 0
M  V30 13 Pb -2.4013 -4.5178 0.2787 0
M  V30 14 Pb -1.9812 -4.7315 1.6129 0
M  V30 15 Pb -3.1042 -3.3652 0.6809 0
M  V30 16 Pd 3.6471 -5.5845 5.5733 0
M  V30 17 Pb 4.4488 -5.3060 6.0951 0
M  V30 18 Pb 3.0856 -4.9524 6.1101 0
M  V30 19 Pb 4.2519 -6.0978 4.9375 0
M  V30 20 Pb 2.8443 -5.8846 5.0592 0
M  V30 21 Pd -2.6348 1.4671 0.5191 0
M  V30 22 Pb -1.7801 0.9531 0.5056 0
M  V30 23 Pb -2.1400 2.2744 0.8494 0
M  V30 24 Pb -3.1328 0.6605 0.1978 0
M  V30 25 Pb -3.4951 1.9728 0.4882 0
M  V30 26 Pd 0.6690 5.3768 -1.5433 0
M  V30 27 Pb 0.9772 5.6126 -2.4647 0
M  V30 28 Pb 1.1088 4.4842 -1.6332 0
M  V30 29 Pb 0.2356 6.2774 -1.4865 0
M  V30 30 Pb 0.3187 5.1313 -0.6375 0
M  V30 31 Pd 1.0075 -1.3054 3.9262 0
M  V30 32 Pb 0.7976 -1.0300 2.9890 0
M  V30 33 Pb 1.9505 -1.0431 3.7147 0
M  V30 34 Pb 0.0485 -1.5367 4.0945 0
M  V30 35 Pb 1.2334 -1.6543 4.8402 0
M  V30 36 Pd 0.3733 -2.3701 -2.5718 0
M  V30 37 Pb 1.2203 -2.8732 -2.3846 0
M  V30 38 Pb -0.1311 -3.2320 -2.5895 0
M  V30 39 Pb -0.4874 -1.8970 -2.7781 0
M  V30 40 Pb 0.8722 -1.5068 -2.5072 0
M  V30 41 Pd 6.8899 -4.1773 1.4985 0
M  V30 42 Pb 6.7253 -5.1145 1.8353 0
M  V30 43 Pb 7.5273 -4.0310 2.2502 0
M  V30 44 Pb 6.8164 -3.1913 1.3952 0
M  V30 45 Pb 6.2458 -4.3132 0.7429 0
M  V30 46 Ag -1.5492 -5.2309 1.9660 0
M  V30 47 Fe 0.3475 -5.6816 3.3206 0
M  V30 48 Ag 2.2462 -6.1229 4.6756 0
M  V30 49 Ag 1.8454 -3.2746 -2.2637 0
M  V30 50 Fe 3.7999 -3.8165 -1.0230 0
M  V30 51 Ag 5.7695 -4.4109 0.1691 0
M  V30 52 Ag 2.6223 -0.8330 3.4502 0
M  V30 53 Fe 4.6735 -1.4765 2.4429 0
M  V30 54 Ag 6.6007 -2.4851 1.4937 0
M  V30 55 Ag -4.4532 1.7569 -3.6205 0
M  V30 56 Fe -2.7557 0.1294 -3.2648 0
M  V30 57 Ag -1.1621 -1.6072 -2.9473 0
M  V30 58 Ag 1.4469 3.8231 -1.7329 0
M  V30 59 Fe 1.3389 1.4769 -2.0796 0
M  V30 60 Ag 1.2592 -0.8702 -2.4272 0
M  V30 61 Ag 5.1145 -5.0819 6.3320 0
M  V30 62 Fe 6.9462 -4.3863 5.0305 0
M  V30 63 Ag 7.8633 -3.9599 2.9069 0
M  V30 64 Ba -1.7973 8.1306 -3.5906 0
M  V30 65 Ga -0.9445 7.6011 -2.5101 0
M  V30 66 Ba -0.0839 6.9570 -1.5002 0
M  V30 67 Ba -4.4519 3.6804 -5.2830 0
M  V30 68 Ga -3.6409 4.8156 -5.7666 0
M  V30 69 Ba -2.8311 5.9984 -6.1209 0
M  V30 70 Ba 4.7137 -6.4606 4.4441 0
M  V30 71 Ga 5.6200 -6.1089 3.3079 0
M  V30 72 Ba 6.5294 -5.7704 2.1701 0
M  V30 73 Ba -5.6063 5.0614 -3.7286 0
M  V30 74 Ga -4.8544 6.2615 -4.1288 0
M  V30 75 Ba -3.9847 7.3715 -4.5491 0
M  V30 76 Ba -1.7607 2.8685 1.1134 0
M  V30 77 Ga -0.8617 3.9039 0.5616 0
M  V30 78 Ba 0.0399 4.9510 0.0369 0
M  V30 79 Ba -0.6118 6.8913 -5.2505 0
M  V30 80 Ga 0.3265 6.3471 -4.2533 0
M  V30 81 Ba 1.1587 5.7995 -3.1676 0
M  V30 82 Ba -2.6927 -3.2039 2.6716 0
M  V30 83 Ga -1.6973 -2.4491 3.4558 0
M  V30 84 Ba -0.6745 -1.7020 4.2117 0
M  V30 85 Ba -1.1400 0.5690 0.4663 0
M  V30 86 Ga -0.2435 -0.1331 1.4005 0
M  V30 87 Ba 0.7041 -0.8554 2.2664 0
M  V30 88 Ba -3.5181 -2.8593 0.3124 0
M  V30 89 Ga -3.5086 -1.3928 0.1466 0
M  V30 90 Ba -3.5304 0.0707 -0.0428 0
M  V30 91 Ba -5.5442 3.3126 -1.9840 0
M  V30 92 Ga -4.8736 2.8257 -0.7651 0
M  V30 93 Ba -4.1546 2.3195 0.4178 0
M  V30 94 Ba 2.7005 -4.4175 6.4724 0
M  V30 95 Ga 2.0255 -3.1844 6.0104 0
M  V30 96 Ba 1.3592 -1.9576 5.5194 0
M  V30 97 Ba -2.2586 -4.8368 -0.3837 0
M  V30 98 Ga -1.4074 -4.3957 -1.5021 0
M  V30 99 Ba -0.5315 -3.8640 -2.5603 0
M  V30 END ATOM
M  V30 BEGIN BOND
M  V30 1 1 1 2
M  V30 2 1 1 3
M  V30 3 1 1 4
M  V30 4 1 1 5
M  V30 5 1 6 7
M  V30 6 1 6 8
M  V30 7 1 6 9
M  V30 8 1 6 10
M  V30 9 1 11 12
M  V30 10 1 11 13
M  V30 11 1 11 14
M  V30 12 1 11 15
M  V30 13 1 16 17
M  V30 14 1 16 18
M  V30 15 1 16 19
M  V30 16 1 16 20
M  V30 17 1 21 22
M  V30 18 1 21 23
M  V30 19 1 21 24
M  V30 20 1 21 25
M  V30 21 1 26 27
M  V30 22 1 26 28
M  V30 23 1 26 29
M  V30 24 1 26 30
M  V30 25 1 31 32
M  V30 26 1 31 33
M  V30 27 1 31 34
M  V30 28 1 31 35
M  V30 29 1 36 37
M  V30 30 1 36 38
M  V30 31 1 36 39
M  V30 32 1 36 40
M  V30 33 1 41 42
M  V30 34 1 41 43
M  V30 35 1 41 44
M  V30 36 1 41 45
M  V30 37 1 46 47
M  V30 38 1 47 48
M  V30 39 1 49 50
M  V30 40 1 50 51
M  V30 41 1 52 53
M  V30 42 1 53 54
M  V30 43 1 55 56
M  V30 44 1 56 57
M  V30 45 1 58 59
M  V30 46 1 59 60
M  V30 47 1 61 62
M  V30 48 1 62 63
M  V30 49 1 64 65
M  V30 50 1 65 66
M  V30 51 1 67 68
M  V30 52 1 68 69
M  V30 53 1 70 71
M  V30 54 1 71 72
M  V30 55 1 73 74
M  V30 56 1 74 75
M  V30 57 1 76 77
M  V30 58 1 77 78
M  V30 59 1 79 80
M  V30 60 1 80 81
M  V30 61 1 82 83
M  V30 62 1 83 84
M  V30 63 1 85 86
M  V30 64 1 86 87
M  V30 65 1 88 89
M  V30 66 1 89 90
M  V30 67 1 91 92
M  V30 68 1 92 93
M  V30 69 1 94 95
M  V30 70 1 95 96
M  V30 71 1 97 98
M  V30 72 1 98 99
M  V30 73 1 2 91
M  V30 74 1 3 67
M  V30 75 1 4 73
M  V30 76 1 5 55
M  V30 77 1 7 79
M  V30 78 1 8 75
M  V30 79 1 9 69
M  V30 80 1 10 64
M  V30 81 1 12 82
M  V30 82 1 13 97
M  V30 83 1 14 46
M  V30 84 1 15 88
M  V30 85 1 17 61
M  V30 86 1 18 94
M  V30 87 1 19 70
M  V30 88 1 20 48
M  V30 89 1 22 85
M  V30 90 1 23 76
M  V30 91 1 24 90
M  V30 92 1 25 93
M  V30 93 1 27 81
M  V30 94 1 28 58
M  V30 95 1 29 66
M  V30 96 1 30 78
M  V30 97 1 32 87
M  V30 98 1 33 52
M  V30 99 1 34 84
M  V30 100 1 35 96
M  V30 101 1 37 49
M  V30 102 1 38 99
M  V30 103 1 39 57
M  V30 104 1 40 60
M  V30 105 1 42 72
M  V30 106 1 43 63
M  V30 107 1 44 54
M  V30 108 1 45 51
M  V30 END BOND
M  V30 END CTAB
M  END

$$$$
