
     RDKit          3D

  0  0  0  0  0  0  0  0  0  0999 V3000
M  V30 BEGIN CTAB
M  V30 COUNTS 99 108 0 0 0
M  V30 BEGIN ATOM
M  V30 1 Pd 0.8390 3.5627 -2.4691 0
M  V30 2 Pb 0.0601 3.7351 -3.0721 0
M  V30 3 Pb 1.5513 3.3363 -1.8018 0
M  V30 4 Pb 0.5571 4.3135 -1.8739 0
M  V30 5 Pb 1.0888 2.7865 -3.0470 0
M  V30 6 Pd 7.6067 -1.6480 0.9444 0
M  V30 7 Pb 6.7846 -2.0271 1.3771 0
M  V30 8 Pb 8.4661 -1.2952 0.5856 0
M  V30 9 Pb 7.7005 -2.4347 0.3317 0
M  V30 10 Pb 7.4721 -0.7692 1.4375 0
M  V30 11 Pd -6.6664 -2.9728 -1.2013 0
M  V30 12 Pb -7.3872 -2.2800 -1.1670 0
M  V30 13 Pb -5.9208 -3.6391 -1.1939 0
M  V30 14 Pb -6.8514 -3.2681 -0.2657 0
M  V30 15 Pb -6.4434 -2.6605 -2.1262 0
M  V30 16 Pd -3.4917 -1.8774 5.1947 0
M  V30 17 Pb -4.1793 -2.5402 4.9071 0
M  V30 18 Pb -2.8453 -1.1368 5.3928 0
M  V30 19 Pb -2.7712 -2.5727 5.1500 0
M  V30 20 Pb -4.2091 -1.1870 5.2360 0
M  V30 21 Pd 0.3059 -4.6291 1.7025 0
M  V30 22 Pb 1.1799 -4.3337 2.0925 0
M  V30 23 Pb -0.5507 -4.9077 1.2644 0
M  V30 24 Pb -0.1238 -4.5222 2.6040 0
M  V30 25 Pb 0.7673 -4.8068 0.8350 0
M  V30 26 Pd -3.8696 4.9289 3.1316 0
M  V30 27 Pb -3.1959 4.4812 3.7253 0
M  V30 28 Pb -4.5469 5.2390 2.4658 0
M  V30 29 Pb -3.1558 5.4118 2.6279 0
M  V30 30 Pb -4.5637 4.3841 3.5922 0
M  V30 31 Pd -6.5083 1.8839 -2.9895 0
M  V30 32 Pb -5.7456 2.3394 -3.4515 0
M  V30 33 Pb -6.6539 2.7110 -2.4450 0
M  V30 34 Pb -6.3339 1.0366 -3.4935 0
M  V30 35 Pb -7.2550 1.4182 -2.5132 0
M  V30 36 Pd 5.2623 -2.5001 -3.7282 0
M  V30 37 Pb 4.6938 -3.2644 -3.4343 0
M  V30 38 Pb 5.7548 -1.6743 -4.0018 0
M  V30 39 Pb 6.0447 -2.9297 -3.2681 0
M  V30 40 Pb 4.4610 -2.0490 -4.1140 0
M  V30 41 Pd 6.4887 3.4570 -0.5528 0
M  V30 42 Pb 7.4722 3.5508 -0.6815 0
M  V30 43 Pb 5.5084 3.2990 -0.4226 0
M  V30 44 Pb 6.4011 3.4942 -1.5429 0
M  V30 45 Pb 6.6448 3.1054 0.3814 0
M  V30 46 Ag 6.2011 -2.3067 1.7633 0
M  V30 47 Fe 4.0135 -3.2038 2.0165 0
M  V30 48 Ag 1.8418 -4.1070 2.3674 0
M  V30 49 Ag -0.5581 3.8147 -3.4895 0
M  V30 50 Fe -2.8656 3.2848 -3.6882 0
M  V30 51 Ag -5.1642 2.6895 -3.7738 0
M  V30 52 Ag 1.1259 -4.9751 0.1998 0
M  V30 53 Fe 2.6733 -4.4192 -1.5104 0
M  V30 54 Ag 4.2313 -3.7962 -3.1874 0
M  V30 55 Ag -2.4498 -0.5021 5.4842 0
M  V30 56 Fe -2.4631 1.8027 4.8915 0
M  V30 57 Ag -2.7437 4.0433 4.1399 0
M  V30 58 Ag 9.0492 -0.9099 0.3365 0
M  V30 59 Fe 9.2199 1.3352 -0.3467 0
M  V30 60 Ag 8.1955 3.4125 -0.7554 0
M  V30 61 Ag -4.7056 -0.6302 5.2483 0
M  V30 62 Fe -5.0312 1.6392 4.6520 0
M  V30 63 Ag -5.0139 3.8940 3.9267 0
M  V30 64 Ag -6.8981 -3.5043 0.4428 0
M  V30 65 Fe -5.9076 -3.3309 2.5915 0
M  V30 66 Ag -4.7297 -2.9534 4.6157 0
M  V30 67 Ag 0.3305 4.8436 -1.3963 0
M  V30 68 Fe -1.1137 5.3769 0.4095 0
M  V30 69 Ag -2.6254 5.7271 2.2048 0
M  V30 70 Ag 1.2421 2.1951 -3.4812 0
M  V30 71 Fe 2.5332 0.2627 -3.9619 0
M  V30 72 Ag 3.8801 -1.6497 -4.3619 0
M  V30 73 Ag 5.9759 -0.9854 -4.2012 0
M  V30 74 Fe 6.2463 1.2445 -3.4347 0
M  V30 75 Ag 6.4313 3.2986 -2.2617 0
M  V30 76 Ag -5.0434 5.3747 1.9214 0
M  V30 77 Fe -5.9566 4.4433 -0.0634 0
M  V30 78 Ag -6.7208 3.3211 -2.0123 0
M  V30 79 Ag -5.3683 -4.1387 -1.1034 0
M  V30 80 Fe -3.2604 -4.6375 -0.1258 0
M  V30 81 Ag -1.1532 -5.1134 0.8643 0
M  V30 82 Ba -2.2487 -3.1134 5.1403 0
M  V30 83 Ga -1.3352 -3.7632 4.1754 0
M  V30 84 Ba -0.3798 -4.4916 3.3129 0
M  V30 85 Ba -6.2860 -2.3889 -2.8088 0
M  V30 86 Ga -6.2382 -1.0158 -3.3507 0
M  V30 87 Ba -6.2065 0.3794 -3.8344 0
M  V30 88 Ba 7.3716 -0.0925 1.7844 0
M  V30 89 Ga 7.0714 1.3216 1.4007 0
M  V30 90 Ba 6.7717 2.7417 1.0398 0
M  V30 91 Ba -7.9006 -1.7330 -1.1542 0
M  V30 92 Ga -7.8804 -0.3419 -1.6463 0
M  V30 93 Ba -7.7982 1.0391 -2.1599 0
M  V30 94 Ba 7.7866 -2.9627 -0.1970 0
M  V30 95 Ga 7.1914 -3.1397 -1.5406 0
M  V30 96 Ba 6.5812 -3.2921 -2.8805 0
M  V30 97 Ba 2.0130 3.1528 -1.2375 0
M  V30 98 Ga 3.4315 3.1800 -0.8269 0
M  V30 99 Ba 4.7943 3.1311 -0.2598 0
M  V30 END ATOM
M  V30 BEGIN BOND
M  V30 1 1 1 2
M  V30 2 1 1 3
M  V30 3 1 1 4
M  V30 4 1 1 5
M  V30 5 1 6 7
M  V30 6 1 6 8
M  V30 7 1 6 9
M  V30 8 1 6 10
M  V30 9 1 11 12
M  V30 10 1 11 13
M  V30 11 1 11 14
M  V30 12 1 11 15
M  V30 13 1 16 17
M  V30 14 1 16 18
M  V30 15 1 16 19
M  V30 16 1 16 20
M  V30 17 1 21 22
M  V30 18 1 21 23
M  V30 19 1 21 24
M  V30 20 1 21 25
M  V30 21 1 26 27
M  V30 22 1 26 28
M  V30 23 1 26 29
M  V30 24 1 26 30
M  V30 25 1 31 32
M  V30 26 1 31 33
M  V30 27 1 31 34
M  V30 28 1 31 35
M  V30 29 1 36 37
M  V30 30 1 36 38
M  V30 31 1 36 39
M  V30 32 1 36 40
M  V30 33 1 41 42
M  V30 34 1 41 43
M  V30 35 1 41 44
M  V30 36 1 41 45
M  V30 37 1 46 47
M  V30 38 1 47 48
M  V30 39 1 49 50
M  V30 40 1 50 51
M  V30 41 1 52 53
M  V30 42 1 53 54
M  V30 43 1 55 56
M  V30 44 1 56 57
M  V30 45 1 58 59
M  V30 46 1 59 60
M  V30 47 1 61 62
M  V30 48 1 62 63
M  V30 49 1 64 65
M  V30 50 1 65 66
M  V30 51 1 67 68
M  V30 52 1 68 69
M  V30 53 1 70 71
M  V30 54 1 71 72
M  V30 55 1 73 74
M  V30 56 1 74 75
M  V30 57 1 76 77
M  V30 58 1 77 78
M  V30 59 1 79 80
M  V30 60 1 80 81
M  V30 61 1 82 83
M  V30 62 1 83 84
M  V30 63 1 85 86
M  V30 64 1 86 87
M  V30 65 1 88 89
M  V30 66 1 89 90
M  V30 67 1 91 92
M  V30 68 1 92 93
M  V30 69 1 94 95
M  V30 70 1 95 96
M  V30 71 1 97 98
M  V30 72 1 98 99
M  V30 73 1 2 49
M  V30 74 1 3 97
M  V30 75 1 4 67
M  V30 76 1 5 70
M  V30 77 1 7 46
M  V30 78 1 8 58
M  V30 79 1 9 94
M  V30 80 1 10 88
M  V30 81 1 12 91
M  V30 82 1 13 79
M  V30 83 1 14 64
M  V30 84 1 15 85
M  V30 85 1 17 66
M  V30 86 1 18 55
M  V30 87 1 19 82
M  V30 88 1 20 61
M  V30 89 1 22 48
M  V30 90 1 23 81
M  V30 91 1 24 84
M  V30 92 1 25 52
M  V30 93 1 27 57
M  V30 94 1 28 76
M  V30 95 1 29 69
M  V30 96 1 30 63
M  V30 97 1 32 51
M  V30 98 1 33 78
M  V30 99 1 34 87
M  V30 100 1 35 93
M  V30 101 1 37 54
M  V30 102 1 38 73
M  V30 103 1 39 96
M  V30 104 1 40 72
M  V30 105 1 42 60
M  V30 106 1 43 99
M  V30 107 1 44 75
M  V30 108 1 45 90
M  V30 END BOND
M  V30 END CTAB
M  END

$$$$
