
     RDKit          3D

  0  0  0  0  0  0  0  0  0  0999 V3000
M  V30 BEGIN CTAB
M  V30 COUNTS 99 108 0 0 0
M  V30 BEGIN ATOM
M  V30 1 Pd -1.8646 1.8119 -0.7692 0
M  V30 2 Pb -2.5865 2.1748 -0.1761 0
M  V30 3 Pb -1.1424 1.4745 -1.3722 0
M  V30 4 Pb -2.2772 2.2066 -1.5899 0
M  V30 5 Pb -1.4281 1.4130 0.0378 0
M  V30 6 Pd 7.5854 3.0294 1.5053 0
M  V30 7 Pb 7.4451 2.0882 1.8077 0
M  V30 8 Pb 7.6561 3.9497 1.1279 0
M  V30 9 Pb 7.0997 3.3920 2.3025 0
M  V30 10 Pb 7.9409 2.6962 0.6301 0
M  V30 11 Pd -3.4094 -4.2703 3.4298 0
M  V30 12 Pb -4.2841 -4.6228 3.1196 0
M  V30 13 Pb -2.5372 -3.9581 3.8136 0
M  V30 14 Pb -2.9790 -5.0339 2.9547 0
M  V30 15 Pb -3.8781 -3.4328 3.7694 0
M  V30 16 Pd -0.9560 -4.6047 -3.3062 0
M  V30 17 Pb -1.2247 -5.2838 -2.6252 0
M  V30 18 Pb -1.8448 -4.6365 -3.7652 0
M  V30 19 Pb -0.0943 -4.5596 -2.8022 0
M  V30 20 Pb -0.6797 -3.8895 -3.9505 0
M  V30 21 Pd 2.4071 -2.4044 3.3156 0
M  V30 22 Pb 3.3380 -2.1444 3.0608 0
M  V30 23 Pb 1.5100 -2.6856 3.6680 0
M  V30 24 Pb 2.3550 -2.9677 2.4896 0
M  V30 25 Pb 2.4832 -1.7728 4.0852 0
M  V30 26 Pd -3.7577 -0.6184 -4.9554 0
M  V30 27 Pb -3.9837 -1.5907 -5.0275 0
M  V30 28 Pb -4.6726 -0.3892 -4.6277 0
M  V30 29 Pb -3.5369 0.3490 -4.8308 0
M  V30 30 Pb -2.8197 -0.8442 -5.2225 0
M  V30 31 Pd -6.6536 0.1762 1.5811 0
M  V30 32 Pb -6.0484 0.9743 1.5939 0
M  V30 33 Pb -6.9984 0.4435 0.6841 0
M  V30 34 Pb -6.2229 -0.2021 2.4227 0
M  V30 35 Pb -7.2588 -0.6103 1.5435 0
M  V30 36 Pd 2.3856 2.7221 2.9669 0
M  V30 37 Pb 2.5274 2.1348 3.7650 0
M  V30 38 Pb 2.2057 3.3136 2.1750 0
M  V30 39 Pb 3.1873 3.2590 3.2464 0
M  V30 40 Pb 1.6144 2.1346 2.7119 0
M  V30 41 Pd 4.2830 4.2348 -3.9304 0
M  V30 42 Pb 4.8580 4.9862 -3.6172 0
M  V30 43 Pb 3.7170 3.4303 -4.0965 0
M  V30 44 Pb 3.5119 4.6416 -3.4452 0
M  V30 45 Pb 5.1188 3.7353 -4.1496 0
M  V30 46 Ag 7.3047 1.3717 1.9739 0
M  V30 47 Fe 5.6907 -0.3008 2.4578 0
M  V30 48 Ag 4.0516 -1.9500 2.9378 0
M  V30 49 Ag 0.5056 -4.5742 -2.3526 0
M  V30 50 Fe 1.4522 -3.9517 -0.2641 0
M  V30 51 Ag 2.3850 -3.3264 1.8298 0
M  V30 52 Ag 8.0953 2.5132 -0.0820 0
M  V30 53 Fe 7.1417 2.7992 -2.2382 0
M  V30 54 Ag 5.7678 3.3680 -4.0893 0
M  V30 55 Ag 7.6362 4.5810 0.7309 0
M  V30 56 Fe 6.5937 5.3158 -1.2643 0
M  V30 57 Ag 5.3102 5.4509 -3.2496 0
M  V30 58 Ag -4.9713 -4.7711 2.8908 0
M  V30 59 Fe -6.6972 -3.3720 2.1209 0
M  V30 60 Ag -7.5837 -1.2736 1.5394 0
M  V30 61 Ag -2.7248 -5.5543 2.4825 0
M  V30 62 Fe -2.0175 -5.8062 0.2320 0
M  V30 63 Ag -1.3563 -5.7392 -2.0456 0
M  V30 64 Ag 2.0375 3.7408 1.5760 0
M  V30 65 Fe 2.4340 4.3759 -0.6811 0
M  V30 66 Ag 3.0059 4.8592 -2.9377 0
M  V30 67 Ag -0.6200 1.2799 -1.8734 0
M  V30 68 Fe 1.3266 1.9516 -3.0537 0
M  V30 69 Ag 3.2643 2.8352 -4.1014 0
M  V30 70 Ag -5.3140 -0.1626 -4.3158 0
M  V30 71 Fe -6.3873 0.2468 -2.2401 0
M  V30 72 Ag -7.1938 0.5487 -0.0297 0
M  V30 73 Ba -3.1042 2.4576 0.2909 0
M  V30 74 Ga -4.3563 2.0007 0.9288 0
M  V30 75 Ba -5.6120 1.5862 1.5882 0
M  V30 76 Ba 2.5605 -1.2534 4.6186 0
M  V30 77 Ga 2.5890 0.2182 4.5278 0
M  V30 78 Ba 2.6072 1.6831 4.3597 0
M  V30 79 Ba -2.5104 -4.6167 -4.1122 0
M  V30 80 Ga -3.3393 -3.4962 -4.5988 0
M  V30 81 Ba -4.1164 -2.3290 -5.0607 0
M  V30 82 Ba -4.2327 -2.7954 4.0110 0
M  V30 83 Ga -5.0633 -1.6684 3.4775 0
M  V30 84 Ba -5.8976 -0.4989 3.0525 0
M  V30 85 Ba -0.5119 -3.3373 -4.4319 0
M  V30 86 Ga -1.2868 -2.1834 -4.9317 0
M  V30 87 Ba -2.1174 -1.0513 -5.3900 0
M  V30 88 Ba 6.6840 3.6981 2.8494 0
M  V30 89 Ga 5.2416 3.6561 3.1781 0
M  V30 90 Ba 3.7991 3.6162 3.5067 0
M  V30 91 Ba -2.5270 2.4705 -2.2461 0
M  V30 92 Ga -2.9817 1.8012 -3.4799 0
M  V30 93 Ba -3.4284 1.0770 -4.6854 0
M  V30 94 Ba -1.1221 1.1087 0.6518 0
M  V30 95 Ga -0.0187 1.4170 1.5839 0
M  V30 96 Ba 1.0613 1.6459 2.5649 0
M  V30 97 Ba -1.9190 -3.7413 4.1836 0
M  V30 98 Ga -0.5167 -3.3088 4.0005 0
M  V30 99 Ba 0.8913 -2.8617 4.0615 0
M  V30 END ATOM
M  V30 BEGIN BOND
M  V30 1 1 1 2
M  V30 2 1 1 3
M  V30 3 1 1 4
M  V30 4 1 1 5
M  V30 5 1 6 7
M  V30 6 1 6 8
M  V30 7 1 6 9
M  V30 8 1 6 10
M  V30 9 1 11 12
M  V30 10 1 11 13
M  V30 11 1 11 14
M  V30 12 1 11 15
M  V30 13 1 16 17
M  V30 14 1 16 18
M  V30 15 1 16 19
M  V30 16 1 16 20
M  V30 17 1 21 22
M  V30 18 1 21 23
M  V30 19 1 21 24
M  V30 20 1 21 25
M  V30 21 1 26 27
M  V30 22 1 26 28
M  V30 23 1 26 29
M  V30 24 1 26 30
M  V30 25 1 31 32
M  V30 26 1 31 33
M  V30 27 1 31 34
M  V30 28 1 31 35
M  V30 29 1 36 37
M  V30 30 1 36 38
M  V30 31 1 36 39
M  V30 32 1 36 40
M  V30 33 1 41 42
M  V30 34 1 41 43
M  V30 35 1 41 44
M  V30 36 1 41 45
M  V30 37 1 46 47
M  V30 38 1 47 48
M  V30 39 1 49 50
M  V30 40 1 50 51
M  V30 41 1 52 53
M  V30 42 1 53 54
M  V30 43 1 55 56
M  V30 44 1 56 57
M  V30 45 1 58 59
M  V30 46 1 59 60
M  V30 47 1 61 62
M  V30 48 1 62 63
M  V30 49 1 64 65
M  V30 50 1 65 66
M  V30 51 1 67 68
M  V30 52 1 68 69
M  V30 53 1 70 71
M  V30 54 1 71 72
M  V30 55 1 73 74
M  V30 56 1 74 75
M  V30 57 1 76 77
M  V30 58 1 77 78
M  V30 59 1 79 80
M  V30 60 1 80 81
M  V30 61 1 82 83
M  V30 62 1 83 84
M  V30 63 1 85 86
M  V30 64 1 86 87
M  V30 65 1 88 89
M  V30 66 1 89 90
M  V30 67 1 91 92
M  V30 68 1 92 93
M  V30 69 1 94 95
M  V30 70 1 95 96
M  V30 71 1 97 98
M  V30 72 1 98 99
M  V30 73 1 2 73
M  V30 74 1 3 67
M  V30 75 1 4 91
M  V30 76 1 5 94
M  V30 77 1 7 46
M  V30 78 1 8 55
M  V30 79 1 9 88
M  V30 80 1 10 52
M  V30 81 1 12 58
M  V30 82 1 13 97
M  V30 83 1 14 61
M  V30 84 1 15 82
M  V30 85 1 17 63
M  V30 86 1 18 79
M  V30 87 1 19 49
M  V30 88 1 20 85
M  V30 89 1 22 48
M  V30 90 1 23 99
M  V30 91 1 24 51
M  V30 92 1 25 76
M  V30 93 1 27 81
M  V30 94 1 28 70
M  V30 95 1 29 93
M  V30 96 1 30 87
M  V30 97 1 32 75
M  V30 98 1 33 72
M  V30 99 1 34 84
M  V30 100 1 35 60
M  V30 101 1 37 78
M  V30 102 1 38 64
M  V30 103 1 39 90
M  V30 104 1 40 96
M  V30 105 1 42 57
M  V30 106 1 43 69
M  V30 107 1 44 66
M  V30 108 1 45 54
M  V30 END BOND
M  V30 END CTAB
M  END

$$$$
