
     RDKit          3D

  0  0  0  0  0  0  0  0  0  0999 V3000
M  V30 BEGIN CTAB
M  V30 COUNTS 99 108 0 0 0
M  V30 BEGIN ATOM
M  V30 1 Pd -3.3491 -3.3000 1.5003 0
M  V30 2 Pb -4.1644 -2.9057 1.9365 0
M  V30 3 Pb -2.5456 -3.7448 1.0998 0
M  V30 4 Pb -2.9841 -3.6327 2.3686 0
M  V30 5 Pb -3.6561 -2.9351 0.6185 0
M  V30 6 Pd 3.2921 -3.3683 -5.9732 0
M  V30 7 Pb 3.5785 -2.4981 -5.5671 0
M  V30 8 Pb 3.8495 -3.8599 -5.2992 0
M  V30 9 Pb 2.6796 -2.9104 -6.6229 0
M  V30 10 Pb 3.0592 -4.2512 -6.3798 0
M  V30 11 Pd -1.5320 6.8058 2.4628 0
M  V30 12 Pb -2.3705 6.3422 2.1703 0
M  V30 13 Pb -1.3064 7.0456 1.5243 0
M  V30 14 Pb -0.6490 7.1953 2.7306 0
M  V30 15 Pb -1.7524 6.5083 3.3897 0
M  V30 16 Pd 3.2859 4.5720 2.7353 0
M  V30 17 Pb 2.9791 5.5262 2.7654 0
M  V30 18 Pb 2.9311 4.4437 3.6600 0
M  V30 19 Pb 3.7067 4.6919 1.8297 0
M  V30 20 Pb 3.5571 3.6069 2.7692 0
M  V30 21 Pd 2.6229 3.8985 -2.9337 0
M  V30 22 Pb 3.1618 3.0902 -3.1735 0
M  V30 23 Pb 2.0753 4.7014 -2.7167 0
M  V30 24 Pb 3.3032 4.1801 -2.2518 0
M  V30 25 Pb 1.9203 3.6289 -3.5902 0
M  V30 26 Pd 1.1437 -1.0173 6.8327 0
M  V30 27 Pb 1.3211 -0.0648 7.0686 0
M  V30 28 Pb 0.3297 -1.0451 7.4072 0
M  V30 29 Pb 0.8618 -1.9194 6.5143 0
M  V30 30 Pb 1.8747 -0.9335 6.1516 0
M  V30 31 Pd -5.1654 0.9872 4.7445 0
M  V30 32 Pb -5.5337 0.1783 4.2801 0
M  V30 33 Pb -4.9261 0.4534 5.5527 0
M  V30 34 Pb -4.7514 1.7859 5.1804 0
M  V30 35 Pb -5.3266 1.5714 3.9489 0
M  V30 36 Pd -1.8985 -1.5889 -5.8795 0
M  V30 37 Pb -1.6891 -0.6133 -5.8661 0
M  V30 38 Pb -2.0932 -2.5670 -5.8622 0
M  V30 39 Pb -1.1863 -1.7000 -6.5780 0
M  V30 40 Pb -2.5649 -1.4903 -5.1393 0
M  V30 41 Pd 1.5863 -7.0721 -3.4298 0
M  V30 42 Pb 2.5382 -6.8252 -3.2542 0
M  V30 43 Pb 1.3234 -6.7901 -2.5078 0
M  V30 44 Pb 0.6308 -7.1589 -3.6913 0
M  V30 45 Pb 1.8268 -7.2415 -4.3818 0
M  V30 46 Ag 3.8472 -1.8725 -5.2473 0
M  V30 47 Fe 3.6598 0.3061 -4.3160 0
M  V30 48 Ag 3.5590 2.4844 -3.3707 0
M  V30 49 Ag 1.3704 3.4396 -4.0618 0
M  V30 50 Fe -0.0723 1.7919 -4.9756 0
M  V30 51 Ag -1.4918 0.1082 -5.8597 0
M  V30 52 Ag 2.7097 4.2910 4.3587 0
M  V30 53 Fe 2.0581 2.5715 5.8577 0
M  V30 54 Ag 1.4344 0.6709 7.1328 0
M  V30 55 Ag -1.9812 6.2062 4.0346 0
M  V30 56 Fe -3.1805 4.3434 4.8857 0
M  V30 57 Ag -4.4101 2.3945 5.4542 0
M  V30 58 Ag -2.9753 5.9326 1.9921 0
M  V30 59 Fe -4.2619 4.0258 2.5894 0
M  V30 60 Ag -5.3644 2.0837 3.4018 0
M  V30 61 Ag 3.7135 2.8788 2.8835 0
M  V30 62 Fe 3.1340 0.9755 4.1883 0
M  V30 63 Ag 2.3738 -0.7733 5.6111 0
M  V30 64 Ag -2.6046 -3.8771 2.9667 0
M  V30 65 Fe -1.0375 -3.3219 4.6605 0
M  V30 66 Ag 0.5212 -2.5387 6.2699 0
M  V30 67 Ag -3.8831 -2.6280 -0.0298 0
M  V30 68 Fe -3.4832 -2.0389 -2.2978 0
M  V30 69 Ag -3.0469 -1.4676 -4.5637 0
M  V30 70 Ag -2.2244 -3.2971 -5.7723 0
M  V30 71 Fe -1.3177 -5.3113 -4.9157 0
M  V30 72 Ag -0.0530 -7.0781 -3.9726 0
M  V30 73 Ag -1.9283 -4.1309 0.9101 0
M  V30 74 Fe -0.4406 -5.3199 -0.5110 0
M  V30 75 Ag 1.1223 -6.5229 -1.8369 0
M  V30 76 Ag -0.3519 -1.0748 7.7096 0
M  V30 77 Fe -2.5880 -0.5514 7.1217 0
M  V30 78 Ag -4.6493 0.1183 6.1608 0
M  V30 79 Ag -1.0804 7.1775 0.8275 0
M  V30 80 Fe 0.2569 6.3178 -0.9282 0
M  V30 81 Ag 1.6423 5.2845 -2.5480 0
M  V30 82 Ba -4.8027 -2.6451 2.2445 0
M  V30 83 Ga -5.2686 -1.5231 3.0900 0
M  V30 84 Ba -5.8067 -0.4304 3.9312 0
M  V30 85 Ba 4.0790 4.7819 1.1782 0
M  V30 86 Ga 3.8982 4.5800 -0.2776 0
M  V30 87 Ba 3.8111 4.4133 -1.7465 0
M  V30 88 Ba 2.9149 -4.9375 -6.6438 0
M  V30 89 Ga 2.4568 -6.1495 -5.9464 0
M  V30 90 Ba 1.9927 -7.2665 -5.1089 0
M  V30 91 Ba 4.2239 -4.2643 -4.7857 0
M  V30 92 Ga 3.7971 -5.4135 -3.9608 0
M  V30 93 Ba 3.2336 -6.5502 -3.2041 0
M  V30 94 Ba 0.0396 7.4667 2.8634 0
M  V30 95 Ga 1.3882 6.8598 2.8601 0
M  V30 96 Ba 2.7264 6.2305 2.8511 0
M  V30 97 Ba 2.1982 -2.6069 -7.1170 0
M  V30 98 Ga 0.7816 -2.1782 -7.0919 0
M  V30 99 Ba -0.6335 -1.7440 -7.0887 0
M  V30 END ATOM
M  V30 BEGIN BOND
M  V30 1 1 1 2
M  V30 2 1 1 3
M  V30 3 1 1 4
M  V30 4 1 1 5
M  V30 5 1 6 7
M  V30 6 1 6 8
M  V30 7 1 6 9
M  V30 8 1 6 10
M  V30 9 1 11 12
M  V30 10 1 11 13
M  V30 11 1 11 14
M  V30 12 1 11 15
M  V30 13 1 16 17
M  V30 14 1 16 18
M  V30 15 1 16 19
M  V30 16 1 16 20
M  V30 17 1 21 22
M  V30 18 1 21 23
M  V30 19 1 21 24
M  V30 20 1 21 25
M  V30 21 1 26 27
M  V30 22 1 26 28
M  V30 23 1 26 29
M  V30 24 1 26 30
M  V30 25 1 31 32
M  V30 26 1 31 33
M  V30 27 1 31 34
M  V30 28 1 31 35
M  V30 29 1 36 37
M  V30 30 1 36 38
M  V30 31 1 36 39
M  V30 32 1 36 40
M  V30 33 1 41 42
M  V30 34 1 41 43
M  V30 35 1 41 44
M  V30 36 1 41 45
M  V30 37 1 46 47
M  V30 38 1 47 48
M  V30 39 1 49 50
M  V30 40 1 50 51
M  V30 41 1 52 53
M  V30 42 1 53 54
M  V30 43 1 55 56
M  V30 44 1 56 57
M  V30 45 1 58 59
M  V30 46 1 59 60
M  V30 47 1 61 62
M  V30 48 1 62 63
M  V30 49 1 64 65
M  V30 50 1 65 66
M  V30 51 1 67 68
M  V30 52 1 68 69
M  V30 53 1 70 71
M  V30 54 1 71 72
M  V30 55 1 73 74
M  V30 56 1 74 75
M  V30 57 1 76 77
M  V30 58 1 77 78
M  V30 59 1 79 80
M  V30 60 1 80 81
M  V30 61 1 82 83
M  V30 62 1 83 84
M  V30 63 1 85 86
M  V30 64 1 86 87
M  V30 65 1 88 89
M  V30 66 1 89 90
M  V30 67 1 91 92
M  V30 68 1 92 93
M  V30 69 1 94 95
M  V30 70 1 95 96
M  V30 71 1 97 98
M  V30 72 1 98 99
M  V30 73 1 2 82
M  V30 74 1 3 73
M  V30 75 1 4 64
M  V30 76 1 5 67
M  V30 77 1 7 46
M  V30 78 1 8 91
M  V30 79 1 9 97
M  V30 80 1 10 88
M  V30 81 1 12 58
M  V30 82 1 13 79
M  V30 83 1 14 94
M  V30 84 1 15 55
M  V30 85 1 17 96
M  V30 86 1 18 52
M  V30 87 1 19 85
M  V30 88 1 20 61
M  V30 89 1 22 48
M  V30 90 1 23 81
M  V30 91 1 24 87
M  V30 92 1 25 49
M  V30 93 1 27 54
M  V30 94 1 28 76
M  V30 95 1 29 66
M  V30 96 1 30 63
M  V30 97 1 32 84
M  V30 98 1 33 78
M  V30 99 1 34 57
M  V30 100 1 35 60
M  V30 101 1 37 51
M  V30 102 1 38 70
M  V30 103 1 39 99
M  V30 104 1 40 69
M  V30 105 1 42 93
M  V30 106 1 43 75
M  V30 107 1 44 72
M  V30 108 1 45 90
M  V30 END BOND
M  V30 END CTAB
M  END

$$$$
