
     RDKit          3D

  0  0  0  0  0  0  0  0  0  0999 V3000
M  V30 BEGIN CTAB
M  V30 COUNTS 99 108 0 0 0
M  V30 BEGIN ATOM
M  V30 1 Pd -6.6573 -1.6429 2.2813 0
M  V30 2 Pb -6.9571 -1.8927 1.3636 0
M  V30 3 Pb -6.5658 -2.6112 2.4773 0
M  V30 4 Pb -6.1716 -1.4212 3.1495 0
M  V30 5 Pb -6.8238 -0.6746 2.0865 0
M  V30 6 Pd 3.0089 1.7032 4.3243 0
M  V30 7 Pb 3.9021 2.0162 4.0008 0
M  V30 8 Pb 3.3855 0.7797 4.3641 0
M  V30 9 Pb 2.1003 1.4055 4.6337 0
M  V30 10 Pb 2.6760 2.6433 4.2497 0
M  V30 11 Pd 1.9399 -2.2388 -4.7943 0
M  V30 12 Pb 1.7031 -1.4289 -5.3102 0
M  V30 13 Pb 2.2232 -3.0725 -4.3063 0
M  V30 14 Pb 0.9477 -2.4867 -4.7179 0
M  V30 15 Pb 2.8828 -1.9266 -4.9017 0
M  V30 16 Pd -3.9861 -0.6849 -4.5905 0
M  V30 17 Pb -3.4555 -0.0665 -5.1513 0
M  V30 18 Pb -4.5854 -1.2708 -4.0465 0
M  V30 19 Pb -3.2330 -1.3812 -4.6179 0
M  V30 20 Pb -4.6833 0.0247 -4.5010 0
M  V30 21 Pd 0.3527 4.4984 0.5280 0
M  V30 22 Pb -0.1213 4.2560 -0.3201 0
M  V30 23 Pb 1.1618 4.7668 0.0014 0
M  V30 24 Pb -0.4457 4.2146 1.0560 0
M  V30 25 Pb 0.8036 4.7354 1.3888 0
M  V30 26 Pd 7.1214 2.2342 -1.8355 0
M  V30 27 Pb 6.5367 3.0372 -1.9495 0
M  V30 28 Pb 7.5952 1.3686 -1.7023 0
M  V30 29 Pb 7.2493 2.4908 -0.8793 0
M  V30 30 Pb 6.9121 1.8807 -2.7441 0
M  V30 31 Pd -1.4782 -2.3184 4.7544 0
M  V30 32 Pb -0.6716 -2.7989 4.4165 0
M  V30 33 Pb -1.9088 -3.2113 4.7166 0
M  V30 34 Pb -2.3868 -1.8940 4.9385 0
M  V30 35 Pb -1.0353 -1.4217 4.8639 0
M  V30 36 Pd -4.6221 2.6949 -0.6445 0
M  V30 37 Pb -5.1421 2.5400 -1.4862 0
M  V30 38 Pb -5.4222 2.4735 -0.0871 0
M  V30 39 Pb -4.1096 2.8623 0.1956 0
M  V30 40 Pb -3.8101 2.9207 -1.1857 0
M  V30 41 Pd 4.4155 -4.1961 -0.0176 0
M  V30 42 Pb 4.0543 -4.5211 -0.8973 0
M  V30 43 Pb 4.7107 -3.8362 0.8644 0
M  V30 44 Pb 3.6255 -4.5202 0.4942 0
M  V30 45 Pb 5.2508 -3.8487 -0.4383 0
M  V30 46 Ag 4.5636 2.2487 3.7343 0
M  V30 47 Fe 5.9852 2.4891 1.8482 0
M  V30 48 Ag 7.2620 2.6444 -0.1471 0
M  V30 49 Ag -6.3890 -3.3006 2.6725 0
M  V30 50 Fe -4.4498 -4.1308 3.7050 0
M  V30 51 Ag -2.3153 -3.8221 4.6352 0
M  V30 52 Ag 1.7699 4.9494 -0.4014 0
M  V30 53 Fe 3.9148 4.3408 -1.2236 0
M  V30 54 Ag 6.0454 3.6034 -1.9743 0
M  V30 55 Ag 7.8297 0.6625 -1.6524 0
M  V30 56 Fe 6.9991 -1.5085 -1.1860 0
M  V30 57 Ag 5.8918 -3.5404 -0.6693 0
M  V30 58 Ag 3.5387 -1.5855 -5.0270 0
M  V30 59 Fe 5.1867 -0.0538 -4.2699 0
M  V30 60 Ag 6.7440 1.4882 -3.3581 0
M  V30 61 Ag 3.7341 0.1180 4.3384 0
M  V30 62 Fe 4.3316 -1.7559 3.0114 0
M  V30 63 Ag 4.8304 -3.5539 1.5462 0
M  V30 64 Ag -7.0533 -2.1128 0.6556 0
M  V30 65 Fe -6.1461 -1.9299 -1.5300 0
M  V30 66 Ag -5.1060 -1.6278 -3.6421 0
M  V30 67 Ag 1.4514 -0.8390 -5.6719 0
M  V30 68 Fe -0.6689 0.1431 -5.9075 0
M  V30 69 Ag -2.9805 0.3372 -5.5426 0
M  V30 70 Ag -0.2109 -3.2841 4.0779 0
M  V30 71 Fe 1.4485 -3.9700 2.5255 0
M  V30 72 Ag 3.1110 -4.7099 1.0013 0
M  V30 73 Ba -5.7791 -1.2566 3.7910 0
M  V30 74 Ga -4.4139 -1.4504 4.3820 0
M  V30 75 Ba -3.0836 -1.5902 5.0614 0
M  V30 76 Ba -7.0039 0.0402 1.9396 0
M  V30 77 Ga -6.4836 1.1660 1.1390 0
M  V30 78 Ba -6.0079 2.3239 0.3568 0
M  V30 79 Ba -0.4850 4.0725 -0.9515 0
M  V30 80 Ga -1.8415 3.5818 -1.2688 0
M  V30 81 Ba -3.1978 3.0910 -1.5868 0
M  V30 82 Ba 2.4426 -3.7204 -3.9829 0
M  V30 83 Ga 3.1071 -4.2024 -2.7485 0
M  V30 84 Ba 3.7634 -4.7716 -1.5473 0
M  V30 85 Ba 0.2062 -2.7085 -4.6793 0
M  V30 86 Ga -1.2173 -2.2228 -4.6528 0
M  V30 87 Ba -2.6939 -1.9384 -4.6157 0
M  V30 88 Ba -1.0361 3.9952 1.4604 0
M  V30 89 Ga -2.3849 3.4947 1.1463 0
M  V30 90 Ba -3.7329 2.9946 0.8283 0
M  V30 91 Ba -5.1912 0.5626 -4.3839 0
M  V30 92 Ga -5.3784 1.5061 -3.2654 0
M  V30 93 Ba -5.5241 2.4288 -2.1236 0
M  V30 94 Ba 1.4000 1.2577 4.8726 0
M  V30 95 Ga 0.3660 0.1972 4.8957 0
M  V30 96 Ba -0.7862 -0.7252 5.0197 0
M  V30 97 Ba 2.4625 3.3584 4.1718 0
M  V30 98 Ga 1.7839 4.1321 3.1145 0
M  V30 99 Ba 1.1050 4.9029 2.0552 0
M  V30 END ATOM
M  V30 BEGIN BOND
M  V30 1 1 1 2
M  V30 2 1 1 3
M  V30 3 1 1 4
M  V30 4 1 1 5
M  V30 5 1 6 7
M  V30 6 1 6 8
M  V30 7 1 6 9
M  V30 8 1 6 10
M  V30 9 1 11 12
M  V30 10 1 11 13
M  V30 11 1 11 14
M  V30 12 1 11 15
M  V30 13 1 16 17
M  V30 14 1 16 18
M  V30 15 1 16 19
M  V30 16 1 16 20
M  V30 17 1 21 22
M  V30 18 1 21 23
M  V30 19 1 21 24
M  V30 20 1 21 25
M  V30 21 1 26 27
M  V30 22 1 26 28
M  V30 23 1 26 29
M  V30 24 1 26 30
M  V30 25 1 31 32
M  V30 26 1 31 33
M  V30 27 1 31 34
M  V30 28 1 31 35
M  V30 29 1 36 37
M  V30 30 1 36 38
M  V30 31 1 36 39
M  V30 32 1 36 40
M  V30 33 1 41 42
M  V30 34 1 41 43
M  V30 35 1 41 44
M  V30 36 1 41 45
M  V30 37 1 46 47
M  V30 38 1 47 48
M  V30 39 1 49 50
M  V30 40 1 50 51
M  V30 41 1 52 53
M  V30 42 1 53 54
M  V30 43 1 55 56
M  V30 44 1 56 57
M  V30 45 1 58 59
M  V30 46 1 59 60
M  V30 47 1 61 62
M  V30 48 1 62 63
M  V30 49 1 64 65
M  V30 50 1 65 66
M  V30 51 1 67 68
M  V30 52 1 68 69
M  V30 53 1 70 71
M  V30 54 1 71 72
M  V30 55 1 73 74
M  V30 56 1 74 75
M  V30 57 1 76 77
M  V30 58 1 77 78
M  V30 59 1 79 80
M  V30 60 1 80 81
M  V30 61 1 82 83
M  V30 62 1 83 84
M  V30 63 1 85 86
M  V30 64 1 86 87
M  V30 65 1 88 89
M  V30 66 1 89 90
M  V30 67 1 91 92
M  V30 68 1 92 93
M  V30 69 1 94 95
M  V30 70 1 95 96
M  V30 71 1 97 98
M  V30 72 1 98 99
M  V30 73 1 2 64
M  V30 74 1 3 49
M  V30 75 1 4 73
M  V30 76 1 5 76
M  V30 77 1 7 46
M  V30 78 1 8 61
M  V30 79 1 9 94
M  V30 80 1 10 97
M  V30 81 1 12 67
M  V30 82 1 13 82
M  V30 83 1 14 85
M  V30 84 1 15 58
M  V30 85 1 17 69
M  V30 86 1 18 66
M  V30 87 1 19 87
M  V30 88 1 20 91
M  V30 89 1 22 79
M  V30 90 1 23 52
M  V30 91 1 24 88
M  V30 92 1 25 99
M  V30 93 1 27 54
M  V30 94 1 28 55
M  V30 95 1 29 48
M  V30 96 1 30 60
M  V30 97 1 32 70
M  V30 98 1 33 51
M  V30 99 1 34 75
M  V30 100 1 35 96
M  V30 101 1 37 93
M  V30 102 1 38 78
M  V30 103 1 39 90
M  V30 104 1 40 81
M  V30 105 1 42 84
M  V30 106 1 43 63
M  V30 107 1 44 72
M  V30 108 1 45 57
M  V30 END BOND
M  V30 END CTAB
M  END

$$$$
