
     RDKit          3D

  0  0  0  0  0  0  0  0  0  0999 V3000
M  V30 BEGIN CTAB
M  V30 COUNTS 99 108 0 0 0
M  V30 BEGIN ATOM
M  V30 1 Pd 5.0164 -1.8435 -0.7284 0
M  V30 2 Pb 4.4815 -2.5604 -0.2753 0
M  V30 3 Pb 5.6177 -1.2056 -1.2220 0
M  V30 4 Pb 4.5935 -2.1031 -1.5961 0
M  V30 5 Pb 5.4066 -1.6075 0.1654 0
M  V30 6 Pd 1.4703 4.6298 -2.5419 0
M  V30 7 Pb 0.8694 3.8479 -2.3790 0
M  V30 8 Pb 2.1273 5.3684 -2.6723 0
M  V30 9 Pb 1.2677 4.9536 -1.6206 0
M  V30 10 Pb 1.7846 4.2355 -3.4079 0
M  V30 11 Pd -6.2025 -1.7229 4.1963 0
M  V30 12 Pb -6.3711 -2.5154 3.6066 0
M  V30 13 Pb -5.9066 -0.9176 4.7043 0
M  V30 14 Pb -6.9094 -1.1756 3.7469 0
M  V30 15 Pb -5.4342 -2.2324 4.5753 0
M  V30 16 Pd -5.8927 1.0969 -0.2636 0
M  V30 17 Pb -6.6076 1.0075 0.4337 0
M  V30 18 Pb -5.1858 1.1534 -0.9665 0
M  V30 19 Pb -5.6459 2.0200 0.0330 0
M  V30 20 Pb -6.0551 0.1592 -0.5719 0
M  V30 21 Pd -1.4134 2.4378 1.7745 0
M  V30 22 Pb -1.1171 2.2837 0.8288 0
M  V30 23 Pb -1.8007 2.5182 2.6903 0
M  V30 24 Pb -2.1395 3.0494 1.4549 0
M  V30 25 Pb -0.7561 1.7650 2.1278 0
M  V30 26 Pd -1.6414 -3.6842 -3.6644 0
M  V30 27 Pb -1.7561 -2.6994 -3.7740 0
M  V30 28 Pb -1.5309 -4.6586 -3.4765 0
M  V30 29 Pb -0.6807 -3.6122 -3.9293 0
M  V30 30 Pb -2.5892 -3.7119 -3.3440 0
M  V30 31 Pd -1.4174 -5.9953 1.0076 0
M  V30 32 Pb -0.4213 -5.9038 1.0433 0
M  V30 33 Pb -1.3651 -6.3627 0.0779 0
M  V30 34 Pb -1.4907 -5.6380 1.9358 0
M  V30 35 Pb -2.4205 -5.9964 0.9904 0
M  V30 36 Pd 3.9124 1.6983 3.2425 0
M  V30 37 Pb 3.0859 1.1421 3.3223 0
M  V30 38 Pb 4.7216 2.2504 3.0571 0
M  V30 39 Pb 3.3342 2.5096 3.1801 0
M  V30 40 Pb 4.5014 0.8899 3.1963 0
M  V30 41 Pd 6.0936 3.4648 -3.0174 0
M  V30 42 Pb 5.7837 4.4142 -3.0476 0
M  V30 43 Pb 6.3982 2.5103 -2.9601 0
M  V30 44 Pb 6.5986 3.6584 -2.1802 0
M  V30 45 Pb 5.4779 3.2727 -3.7836 0
M  V30 46 Ag 4.1285 -3.1421 0.0468 0
M  V30 47 Fe 2.2098 -4.4506 0.5545 0
M  V30 48 Ag 0.3196 -5.7894 1.0891 0
M  V30 49 Ag -4.6610 1.1309 -1.4993 0
M  V30 50 Fe -3.2213 -0.3072 -2.7184 0
M  V30 51 Ag -1.8957 -1.9652 -3.7767 0
M  V30 52 Ag -4.8247 -2.6194 4.7651 0
M  V30 53 Fe -3.1435 -4.0101 3.8380 0
M  V30 54 Ag -1.6260 -5.3608 2.6162 0
M  V30 55 Ag -6.3684 -3.1163 3.1534 0
M  V30 56 Fe -4.8804 -4.5990 2.0364 0
M  V30 57 Ag -3.1682 -5.9192 1.0435 0
M  V30 58 Ag -6.0835 -0.5415 -0.8391 0
M  V30 59 Fe -4.7900 -2.1918 -1.9562 0
M  V30 60 Ag -3.2872 -3.6541 -3.0733 0
M  V30 61 Ag 1.1972 5.1029 -0.8921 0
M  V30 62 Fe 1.9442 4.2515 1.1910 0
M  V30 63 Ag 2.8982 3.0982 3.0302 0
M  V30 64 Ag 4.2424 -2.3170 -2.2227 0
M  V30 65 Fe 2.1800 -2.9334 -3.2242 0
M  V30 66 Ag 0.0475 -3.5264 -4.0830 0
M  V30 67 Ag 5.3149 2.6280 2.8073 0
M  V30 68 Fe 6.2831 3.3072 0.7540 0
M  V30 69 Ag 6.8699 3.7706 -1.4943 0
M  V30 70 Ag -5.5785 -0.3116 4.9910 0
M  V30 71 Fe -3.8890 1.2318 4.3741 0
M  V30 72 Ag -2.1796 2.5019 3.3338 0
M  V30 73 Ba 0.4484 3.2451 -2.2333 0
M  V30 74 Ga -0.2488 2.7130 -1.0449 0
M  V30 75 Ba -0.9638 2.1288 0.1078 0
M  V30 76 Ba -0.3242 1.2268 2.4339 0
M  V30 77 Ga 1.0694 1.0075 2.8759 0
M  V30 78 Ba 2.4512 0.7429 3.3304 0
M  V30 79 Ba -5.3851 2.6988 0.2204 0
M  V30 80 Ga -4.0691 3.1252 0.7387 0
M  V30 81 Ba -2.7296 3.4713 1.2569 0
M  V30 82 Ba 2.1025 3.9265 -4.0158 0
M  V30 83 Ga 3.5096 3.5265 -4.2316 0
M  V30 84 Ba 4.9445 3.1775 -4.3049 0
M  V30 85 Ba 2.6807 5.8595 -2.7735 0
M  V30 86 Ga 4.1146 5.5678 -2.9267 0
M  V30 87 Ba 5.5061 5.1096 -3.0630 0
M  V30 88 Ba -7.3965 -0.7265 3.3939 0
M  V30 89 Ga -7.2911 0.0955 2.1705 0
M  V30 90 Ba -7.1527 0.9065 0.9430 0
M  V30 91 Ba 5.6617 -1.4832 0.8638 0
M  V30 92 Ga 5.3195 -0.5809 1.9847 0
M  V30 93 Ba 4.9830 0.3193 3.1089 0
M  V30 94 Ba 6.1052 -0.8084 -1.6417 0
M  V30 95 Ga 6.3255 0.5278 -2.2410 0
M  V30 96 Ba 6.6706 1.8106 -2.8960 0
M  V30 97 Ba -1.4493 -5.3775 -3.2846 0
M  V30 98 Ga -1.3850 -6.0325 -1.9650 0
M  V30 99 Ba -1.3268 -6.6359 -0.6206 0
M  V30 END ATOM
M  V30 BEGIN BOND
M  V30 1 1 1 2
M  V30 2 1 1 3
M  V30 3 1 1 4
M  V30 4 1 1 5
M  V30 5 1 6 7
M  V30 6 1 6 8
M  V30 7 1 6 9
M  V30 8 1 6 10
M  V30 9 1 11 12
M  V30 10 1 11 13
M  V30 11 1 11 14
M  V30 12 1 11 15
M  V30 13 1 16 17
M  V30 14 1 16 18
M  V30 15 1 16 19
M  V30 16 1 16 20
M  V30 17 1 21 22
M  V30 18 1 21 23
M  V30 19 1 21 24
M  V30 20 1 21 25
M  V30 21 1 26 27
M  V30 22 1 26 28
M  V30 23 1 26 29
M  V30 24 1 26 30
M  V30 25 1 31 32
M  V30 26 1 31 33
M  V30 27 1 31 34
M  V30 28 1 31 35
M  V30 29 1 36 37
M  V30 30 1 36 38
M  V30 31 1 36 39
M  V30 32 1 36 40
M  V30 33 1 41 42
M  V30 34 1 41 43
M  V30 35 1 41 44
M  V30 36 1 41 45
M  V30 37 1 46 47
M  V30 38 1 47 48
M  V30 39 1 49 50
M  V30 40 1 50 51
M  V30 41 1 52 53
M  V30 42 1 53 54
M  V30 43 1 55 56
M  V30 44 1 56 57
M  V30 45 1 58 59
M  V30 46 1 59 60
M  V30 47 1 61 62
M  V30 48 1 62 63
M  V30 49 1 64 65
M  V30 50 1 65 66
M  V30 51 1 67 68
M  V30 52 1 68 69
M  V30 53 1 70 71
M  V30 54 1 71 72
M  V30 55 1 73 74
M  V30 56 1 74 75
M  V30 57 1 76 77
M  V30 58 1 77 78
M  V30 59 1 79 80
M  V30 60 1 80 81
M  V30 61 1 82 83
M  V30 62 1 83 84
M  V30 63 1 85 86
M  V30 64 1 86 87
M  V30 65 1 88 89
M  V30 66 1 89 90
M  V30 67 1 91 92
M  V30 68 1 92 93
M  V30 69 1 94 95
M  V30 70 1 95 96
M  V30 71 1 97 98
M  V30 72 1 98 99
M  V30 73 1 2 46
M  V30 74 1 3 94
M  V30 75 1 4 64
M  V30 76 1 5 91
M  V30 77 1 7 73
M  V30 78 1 8 85
M  V30 79 1 9 61
M  V30 80 1 10 82
M  V30 81 1 12 55
M  V30 82 1 13 70
M  V30 83 1 14 88
M  V30 84 1 15 52
M  V30 85 1 17 90
M  V30 86 1 18 49
M  V30 87 1 19 79
M  V30 88 1 20 58
M  V30 89 1 22 75
M  V30 90 1 23 72
M  V30 91 1 24 81
M  V30 92 1 25 76
M  V30 93 1 27 51
M  V30 94 1 28 97
M  V30 95 1 29 66
M  V30 96 1 30 60
M  V30 97 1 32 48
M  V30 98 1 33 99
M  V30 99 1 34 54
M  V30 100 1 35 57
M  V30 101 1 37 78
M  V30 102 1 38 67
M  V30 103 1 39 63
M  V30 104 1 40 93
M  V30 105 1 42 87
M  V30 106 1 43 96
M  V30 107 1 44 69
M  V30 108 1 45 84
M  V30 END BOND
M  V30 END CTAB
M  END

$$$$
