
     RDKit          3D

  0  0  0  0  0  0  0  0  0  0999 V3000
M  V30 BEGIN CTAB
M  V30 COUNTS 99 108 0 0 0
M  V30 BEGIN ATOM
M  V30 1 Pd 6.0382 -3.2925 -2.3820 0
M  V30 2 Pb 5.3321 -3.7909 -2.8794 0
M  V30 3 Pb 6.6696 -2.6638 -1.8986 0
M  V30 4 Pb 5.5212 -3.4912 -1.5465 0
M  V30 5 Pb 6.5323 -3.1058 -3.2261 0
M  V30 6 Pd -3.3061 -3.8244 4.1541 0
M  V30 7 Pb -3.5585 -2.9843 4.6627 0
M  V30 8 Pb -2.5326 -3.9337 4.7719 0
M  V30 9 Pb -3.0536 -4.6425 3.6351 0
M  V30 10 Pb -4.0677 -3.6958 3.5219 0
M  V30 11 Pd 6.9840 2.2504 -2.1629 0
M  V30 12 Pb 7.3829 1.4164 -1.7478 0
M  V30 13 Pb 7.4326 2.0200 -3.0215 0
M  V30 14 Pb 6.4931 2.4720 -1.3179 0
M  V30 15 Pb 6.4543 2.9698 -2.6005 0
M  V30 16 Pd -4.3201 -1.9489 -2.8893 0
M  V30 17 Pb -4.4909 -0.9957 -2.7271 0
M  V30 18 Pb -3.6910 -1.5359 -3.5541 0
M  V30 19 Pb -4.9099 -2.2486 -2.1429 0
M  V30 20 Pb -4.0930 -2.9106 -3.0597 0
M  V30 21 Pd -3.0487 2.9828 -2.1731 0
M  V30 22 Pb -3.2422 3.5949 -1.4059 0
M  V30 23 Pb -2.8448 2.3382 -2.9336 0
M  V30 24 Pb -2.4285 3.6849 -2.5215 0
M  V30 25 Pb -3.3925 2.2486 -1.5989 0
M  V30 26 Pd -0.7880 -5.4696 -0.7679 0
M  V30 27 Pb 0.0374 -5.3107 -0.2234 0
M  V30 28 Pb -1.3107 -5.7295 0.0492 0
M  V30 29 Pb -1.5870 -5.5665 -1.3650 0
M  V30 30 Pb -0.2189 -5.3294 -1.5760 0
M  V30 31 Pd 0.1665 3.3340 -0.7318 0
M  V30 32 Pb -0.5580 3.5494 -0.0889 0
M  V30 33 Pb -0.5837 3.2060 -1.3642 0
M  V30 34 Pb 0.8159 3.6622 -1.4151 0
M  V30 35 Pb -0.2814 2.5942 -0.2150 0
M  V30 36 Pd -1.6837 1.5791 5.7655 0
M  V30 37 Pb -1.0700 0.9762 6.2669 0
M  V30 38 Pb -0.9559 2.2458 5.5737 0
M  V30 39 Pb -2.4106 0.8805 5.8585 0
M  V30 40 Pb -2.2716 2.1495 5.2088 0
M  V30 41 Pd 0.2538 4.5013 1.2249 0
M  V30 42 Pb -0.7162 4.7294 1.2894 0
M  V30 43 Pb 1.2270 4.2609 1.1596 0
M  V30 44 Pb 0.3232 4.3313 2.2199 0
M  V30 45 Pb 0.1840 4.7103 0.2354 0
M  V30 46 Ag 5.9299 3.4248 -2.8690 0
M  V30 47 Fe 3.6203 3.8152 -2.5102 0
M  V30 48 Ag 1.3378 3.9263 -1.8814 0
M  V30 49 Ag -1.9660 -3.8501 5.2447 0
M  V30 50 Fe -0.9869 -1.9153 6.1754 0
M  V30 51 Ag -0.7008 0.3970 6.5482 0
M  V30 52 Ag 5.0822 -3.6776 -0.9645 0
M  V30 53 Fe 2.9158 -4.4147 -0.3182 0
M  V30 54 Ag 0.6935 -5.1467 0.1052 0
M  V30 55 Ag -1.1198 3.6904 0.3752 0
M  V30 56 Fe -2.0467 3.2626 2.5057 0
M  V30 57 Ag -2.5929 2.5756 4.6981 0
M  V30 58 Ag 6.9056 -2.8184 -3.7989 0
M  V30 59 Fe 7.5740 -0.5960 -4.2013 0
M  V30 60 Ag 7.7052 1.6830 -3.6226 0
M  V30 61 Ag 6.0931 2.6639 -0.7103 0
M  V30 62 Fe 4.0125 3.3642 0.2065 0
M  V30 63 Ag 1.9560 4.0665 1.1749 0
M  V30 64 Ag -4.4322 -0.2657 -2.7148 0
M  V30 65 Fe -2.8027 1.3657 -2.2077 0
M  V30 66 Ag -1.2382 3.0631 -1.6802 0
M  V30 67 Ag 4.7285 -4.0914 -3.2015 0
M  V30 68 Fe 2.4795 -4.7232 -2.7885 0
M  V30 69 Ag 0.2662 -5.2842 -2.1441 0
M  V30 70 Ag -4.6042 -3.6073 3.0085 0
M  V30 71 Fe -5.0667 -3.0490 0.7501 0
M  V30 72 Ag -5.2919 -2.4580 -1.5358 0
M  V30 73 Ba -2.9009 -5.2583 3.2328 0
M  V30 74 Ga -2.2706 -5.5802 1.9344 0
M  V30 75 Ba -1.6632 -6.0071 0.6557 0
M  V30 76 Ba 7.1384 -2.1690 -1.5530 0
M  V30 77 Ga 7.3718 -0.6942 -1.5216 0
M  V30 78 Ba 7.6561 0.7701 -1.4457 0
M  V30 79 Ba -0.4345 2.7612 5.3890 0
M  V30 80 Ga -0.0289 3.4762 4.1502 0
M  V30 81 Ba 0.4453 4.2391 2.9659 0
M  V30 82 Ba -3.3763 1.7442 -1.0520 0
M  V30 83 Ga -2.0897 1.7449 -0.3334 0
M  V30 84 Ba -0.7151 2.0604 0.1011 0
M  V30 85 Ba -3.3595 4.0303 -0.8063 0
M  V30 86 Ga -2.4494 4.4896 0.2578 0
M  V30 87 Ba -1.4476 4.8862 1.2631 0
M  V30 88 Ba -3.2644 -1.0660 -3.9700 0
M  V30 89 Ga -2.9576 0.3794 -3.7433 0
M  V30 90 Ba -2.6769 1.8239 -3.4796 0
M  V30 91 Ba -3.9629 -3.6487 -3.1340 0
M  V30 92 Ga -3.0550 -4.6282 -2.4986 0
M  V30 93 Ba -2.1479 -5.6095 -1.8647 0
M  V30 94 Ba -1.8682 4.1795 -2.6143 0
M  V30 95 Ga -0.8678 4.5766 -1.5866 0
M  V30 96 Ba 0.0959 4.9005 -0.4993 0
M  V30 97 Ba -3.7742 -2.3729 5.0661 0
M  V30 98 Ga -3.3128 -1.0107 5.4597 0
M  V30 99 Ba -2.9678 0.3642 5.9225 0
M  V30 END ATOM
M  V30 BEGIN BOND
M  V30 1 1 1 2
M  V30 2 1 1 3
M  V30 3 1 1 4
M  V30 4 1 1 5
M  V30 5 1 6 7
M  V30 6 1 6 8
M  V30 7 1 6 9
M  V30 8 1 6 10
M  V30 9 1 11 12
M  V30 10 1 11 13
M  V30 11 1 11 14
M  V30 12 1 11 15
M  V30 13 1 16 17
M  V30 14 1 16 18
M  V30 15 1 16 19
M  V30 16 1 16 20
M  V30 17 1 21 22
M  V30 18 1 21 23
M  V30 19 1 21 24
M  V30 20 1 21 25
M  V30 21 1 26 27
M  V30 22 1 26 28
M  V30 23 1 26 29
M  V30 24 1 26 30
M  V30 25 1 31 32
M  V30 26 1 31 33
M  V30 27 1 31 34
M  V30 28 1 31 35
M  V30 29 1 36 37
M  V30 30 1 36 38
M  V30 31 1 36 39
M  V30 32 1 36 40
M  V30 33 1 41 42
M  V30 34 1 41 43
M  V30 35 1 41 44
M  V30 36 1 41 45
M  V30 37 1 46 47
M  V30 38 1 47 48
M  V30 39 1 49 50
M  V30 40 1 50 51
M  V30 41 1 52 53
M  V30 42 1 53 54
M  V30 43 1 55 56
M  V30 44 1 56 57
M  V30 45 1 58 59
M  V30 46 1 59 60
M  V30 47 1 61 62
M  V30 48 1 62 63
M  V30 49 1 64 65
M  V30 50 1 65 66
M  V30 51 1 67 68
M  V30 52 1 68 69
M  V30 53 1 70 71
M  V30 54 1 71 72
M  V30 55 1 73 74
M  V30 56 1 74 75
M  V30 57 1 76 77
M  V30 58 1 77 78
M  V30 59 1 79 80
M  V30 60 1 80 81
M  V30 61 1 82 83
M  V30 62 1 83 84
M  V30 63 1 85 86
M  V30 64 1 86 87
M  V30 65 1 88 89
M  V30 66 1 89 90
M  V30 67 1 91 92
M  V30 68 1 92 93
M  V30 69 1 94 95
M  V30 70 1 95 96
M  V30 71 1 97 98
M  V30 72 1 98 99
M  V30 73 1 2 67
M  V30 74 1 3 76
M  V30 75 1 4 52
M  V30 76 1 5 58
M  V30 77 1 7 97
M  V30 78 1 8 49
M  V30 79 1 9 73
M  V30 80 1 10 70
M  V30 81 1 12 78
M  V30 82 1 13 60
M  V30 83 1 14 61
M  V30 84 1 15 46
M  V30 85 1 17 64
M  V30 86 1 18 88
M  V30 87 1 19 72
M  V30 88 1 20 91
M  V30 89 1 22 85
M  V30 90 1 23 90
M  V30 91 1 24 94
M  V30 92 1 25 82
M  V30 93 1 27 54
M  V30 94 1 28 75
M  V30 95 1 29 93
M  V30 96 1 30 69
M  V30 97 1 32 55
M  V30 98 1 33 66
M  V30 99 1 34 48
M  V30 100 1 35 84
M  V30 101 1 37 51
M  V30 102 1 38 79
M  V30 103 1 39 99
M  V30 104 1 40 57
M  V30 105 1 42 87
M  V30 106 1 43 63
M  V30 107 1 44 81
M  V30 108 1 45 96
M  V30 END BOND
M  V30 END CTAB
M  END

$$$$
