
     RDKit          3D

  0  0  0  0  0  0  0  0  0  0999 V3000
M  V30 BEGIN CTAB
M  V30 COUNTS 99 108 0 0 0
M  V30 BEGIN ATOM
M  V30 1 Pd 3.6715 -3.9809 0.5124 0
M  V30 2 Pb 3.6114 -4.0709 -0.4829 0
M  V30 3 Pb 3.8147 -3.9882 1.5051 0
M  V30 4 Pb 2.8631 -4.5576 0.6288 0
M  V30 5 Pb 4.3953 -3.3048 0.3981 0
M  V30 6 Pd -0.4070 3.1578 7.5827 0
M  V30 7 Pb -1.1330 3.2634 6.9066 0
M  V30 8 Pb -0.6296 2.1896 7.7076 0
M  V30 9 Pb 0.0329 4.0061 7.3006 0
M  V30 10 Pb 0.3728 3.0210 8.1806 0
M  V30 11 Pd -1.6041 2.3000 -7.2808 0
M  V30 12 Pb -0.6505 2.4581 -7.5138 0
M  V30 13 Pb -1.6308 3.1378 -6.7396 0
M  V30 14 Pb -2.5625 2.1637 -7.0351 0
M  V30 15 Pb -1.5432 1.3827 -7.7132 0
M  V30 16 Pd -6.0588 0.2044 -1.6368 0
M  V30 17 Pb -6.1391 0.6643 -2.5185 0
M  V30 18 Pb -5.8985 -0.3176 -0.7925 0
M  V30 19 Pb -5.9424 1.0906 -1.1818 0
M  V30 20 Pb -6.2382 -0.6530 -2.1080 0
M  V30 21 Pd -2.2848 4.1780 0.0475 0
M  V30 22 Pb -2.4086 3.9898 1.0218 0
M  V30 23 Pb -2.1974 4.4360 -0.9160 0
M  V30 24 Pb -3.2671 4.0131 -0.0564 0
M  V30 25 Pb -1.2980 4.3267 0.1508 0
M  V30 26 Pd -3.7719 -4.4300 -1.2516 0
M  V30 27 Pb -4.1499 -3.8786 -0.5003 0
M  V30 28 Pb -3.3812 -4.8797 -2.0528 0
M  V30 29 Pb -3.0031 -4.7572 -0.6995 0
M  V30 30 Pb -4.5379 -4.1472 -1.8187 0
M  V30 31 Pd 1.0613 -2.8712 -6.7964 0
M  V30 32 Pb 1.7241 -3.3269 -6.2044 0
M  V30 33 Pb 0.3740 -3.5280 -6.4870 0
M  V30 34 Pb 0.3746 -2.3488 -7.3350 0
M  V30 35 Pb 1.7582 -2.2246 -7.0876 0
M  V30 36 Pd 4.9227 2.8764 2.9579 0
M  V30 37 Pb 4.3095 3.3251 2.3047 0
M  V30 38 Pb 5.5283 2.3822 3.5893 0
M  V30 39 Pb 4.5592 3.5093 3.6459 0
M  V30 40 Pb 5.2619 2.2423 2.2659 0
M  V30 41 Pd 4.3427 -1.4332 5.9295 0
M  V30 42 Pb 3.4204 -1.6700 6.2484 0
M  V30 43 Pb 4.3477 -2.2004 5.2836 0
M  V30 44 Pb 5.2042 -1.0447 5.6018 0
M  V30 45 Pb 4.3506 -0.7363 6.6374 0
M  V30 46 Ag -1.6460 3.3177 6.3651 0
M  V30 47 Fe -2.0905 3.6027 4.0503 0
M  V30 48 Ag -2.5807 3.8819 1.7442 0
M  V30 49 Ag 3.6285 -4.1874 -1.2251 0
M  V30 50 Fe 2.8963 -3.9016 -3.4665 0
M  V30 51 Ag 2.2000 -3.6472 -5.7232 0
M  V30 52 Ag -0.5546 4.4447 0.1787 0
M  V30 53 Fe 1.6286 4.0377 1.0290 0
M  V30 54 Ag 3.8355 3.6759 1.8378 0
M  V30 55 Ag 1.0156 2.8547 8.5082 0
M  V30 56 Fe 2.8071 1.3819 8.0591 0
M  V30 57 Ag 4.2903 -0.2350 7.1822 0
M  V30 58 Ag -0.6202 1.4370 7.7196 0
M  V30 59 Fe 0.9125 -0.2981 7.1664 0
M  V30 60 Ag 2.7129 -1.7096 6.5082 0
M  V30 61 Ag 0.0738 2.4280 -7.6641 0
M  V30 62 Fe 1.5715 0.6113 -7.6236 0
M  V30 63 Ag 2.1665 -1.6435 -7.2968 0
M  V30 64 Ag -3.2738 2.1131 -6.8063 0
M  V30 65 Fe -4.7734 1.5552 -5.0538 0
M  V30 66 Ag -6.1387 0.9494 -3.2098 0
M  V30 67 Ag 0.5251 4.5016 7.0341 0
M  V30 68 Fe 2.4031 4.4219 5.5809 0
M  V30 69 Ag 4.2109 4.0028 4.0963 0
M  V30 70 Ag 2.2157 -4.9241 0.7258 0
M  V30 71 Fe -0.1040 -5.0124 0.2187 0
M  V30 72 Ag -2.4167 -5.0435 -0.3262 0
M  V30 73 Ag 4.8665 -2.7311 0.3157 0
M  V30 74 Fe 5.2885 -0.4975 0.9931 0
M  V30 75 Ag 5.5279 1.7195 1.8016 0
M  V30 76 Ag -3.0854 -5.1405 -2.6890 0
M  V30 77 Fe -1.6112 -4.6539 -4.4851 0
M  V30 78 Ag -0.1084 -4.0336 -6.2151 0
M  V30 79 Ag -1.6681 3.7067 -6.2555 0
M  V30 80 Fe -1.8932 4.2364 -3.9516 0
M  V30 81 Ag -2.1230 4.6662 -1.6273 0
M  V30 82 Ba -5.9157 1.7790 -0.8776 0
M  V30 83 Ga -4.9251 2.8070 -0.4951 0
M  V30 84 Ba -4.0081 3.8910 -0.0843 0
M  V30 85 Ba -5.7514 -0.7598 -0.1970 0
M  V30 86 Ga -5.1032 -2.0883 -0.0632 0
M  V30 87 Ba -4.4481 -3.4176 0.0198 0
M  V30 88 Ba -1.4991 0.6859 -8.0285 0
M  V30 89 Ga -0.7867 -0.6158 -7.8408 0
M  V30 90 Ba -0.1378 -1.9604 -7.7530 0
M  V30 91 Ba -6.3805 -1.2938 -2.4599 0
M  V30 92 Ga -5.7695 -2.6243 -2.3796 0
M  V30 93 Ba -5.1070 -3.9252 -2.2434 0
M  V30 94 Ba 6.0110 1.9431 3.9704 0
M  V30 95 Ga 5.9264 0.6526 4.6920 0
M  V30 96 Ba 5.8056 -0.6360 5.4118 0
M  V30 97 Ba 3.9603 -4.0877 2.2370 0
M  V30 98 Ga 4.1338 -3.3695 3.5174 0
M  V30 99 Ba 4.3425 -2.8358 4.8801 0
M  V30 END ATOM
M  V30 BEGIN BOND
M  V30 1 1 1 2
M  V30 2 1 1 3
M  V30 3 1 1 4
M  V30 4 1 1 5
M  V30 5 1 6 7
M  V30 6 1 6 8
M  V30 7 1 6 9
M  V30 8 1 6 10
M  V30 9 1 11 12
M  V30 10 1 11 13
M  V30 11 1 11 14
M  V30 12 1 11 15
M  V30 13 1 16 17
M  V30 14 1 16 18
M  V30 15 1 16 19
M  V30 16 1 16 20
M  V30 17 1 21 22
M  V30 18 1 21 23
M  V30 19 1 21 24
M  V30 20 1 21 25
M  V30 21 1 26 27
M  V30 22 1 26 28
M  V30 23 1 26 29
M  V30 24 1 26 30
M  V30 25 1 31 32
M  V30 26 1 31 33
M  V30 27 1 31 34
M  V30 28 1 31 35
M  V30 29 1 36 37
M  V30 30 1 36 38
M  V30 31 1 36 39
M  V30 32 1 36 40
M  V30 33 1 41 42
M  V30 34 1 41 43
M  V30 35 1 41 44
M  V30 36 1 41 45
M  V30 37 1 46 47
M  V30 38 1 47 48
M  V30 39 1 49 50
M  V30 40 1 50 51
M  V30 41 1 52 53
M  V30 42 1 53 54
M  V30 43 1 55 56
M  V30 44 1 56 57
M  V30 45 1 58 59
M  V30 46 1 59 60
M  V30 47 1 61 62
M  V30 48 1 62 63
M  V30 49 1 64 65
M  V30 50 1 65 66
M  V30 51 1 67 68
M  V30 52 1 68 69
M  V30 53 1 70 71
M  V30 54 1 71 72
M  V30 55 1 73 74
M  V30 56 1 74 75
M  V30 57 1 76 77
M  V30 58 1 77 78
M  V30 59 1 79 80
M  V30 60 1 80 81
M  V30 61 1 82 83
M  V30 62 1 83 84
M  V30 63 1 85 86
M  V30 64 1 86 87
M  V30 65 1 88 89
M  V30 66 1 89 90
M  V30 67 1 91 92
M  V30 68 1 92 93
M  V30 69 1 94 95
M  V30 70 1 95 96
M  V30 71 1 97 98
M  V30 72 1 98 99
M  V30 73 1 2 49
M  V30 74 1 3 97
M  V30 75 1 4 70
M  V30 76 1 5 73
M  V30 77 1 7 46
M  V30 78 1 8 58
M  V30 79 1 9 67
M  V30 80 1 10 55
M  V30 81 1 12 61
M  V30 82 1 13 79
M  V30 83 1 14 64
M  V30 84 1 15 88
M  V30 85 1 17 66
M  V30 86 1 18 85
M  V30 87 1 19 82
M  V30 88 1 20 91
M  V30 89 1 22 48
M  V30 90 1 23 81
M  V30 91 1 24 84
M  V30 92 1 25 52
M  V30 93 1 27 87
M  V30 94 1 28 76
M  V30 95 1 29 72
M  V30 96 1 30 93
M  V30 97 1 32 51
M  V30 98 1 33 78
M  V30 99 1 34 90
M  V30 100 1 35 63
M  V30 101 1 37 54
M  V30 102 1 38 94
M  V30 103 1 39 69
M  V30 104 1 40 75
M  V30 105 1 42 60
M  V30 106 1 43 99
M  V30 107 1 44 96
M  V30 108 1 45 57
M  V30 END BOND
M  V30 END CTAB
M  END

$$$$
