
     RDKit          3D

  0  0  0  0  0  0  0  0  0  0999 V3000
M  V30 BEGIN CTAB
M  V30 COUNTS 99 108 0 0 0
M  V30 BEGIN ATOM
M  V30 1 Pd -3.0929 0.8885 4.1750 0
M  V30 2 Pb -3.8836 0.6564 3.5992 0
M  V30 3 Pb -3.2105 -0.0071 4.6131 0
M  V30 4 Pb -3.0013 1.8105 3.7943 0
M  V30 5 Pb -2.3267 1.1384 4.7740 0
M  V30 6 Pd 2.6119 -4.0636 1.6527 0
M  V30 7 Pb 2.4306 -3.3044 1.0285 0
M  V30 8 Pb 1.9562 -4.6202 1.1484 0
M  V30 9 Pb 3.2718 -3.5077 2.1642 0
M  V30 10 Pb 2.6695 -4.8095 2.3365 0
M  V30 11 Pd -1.0767 -1.9577 -6.3222 0
M  V30 12 Pb -1.5413 -2.4505 -5.5817 0
M  V30 13 Pb -0.2124 -2.4253 -6.1547 0
M  V30 14 Pb -0.5801 -1.3798 -6.9705 0
M  V30 15 Pb -1.9077 -1.4142 -6.4099 0
M  V30 16 Pd 3.1011 3.9574 -5.5399 0
M  V30 17 Pb 2.9070 3.3344 -6.2987 0
M  V30 18 Pb 3.1958 4.5400 -4.7317 0
M  V30 19 Pb 3.9717 3.5019 -5.3417 0
M  V30 20 Pb 2.2277 4.4158 -5.6991 0
M  V30 21 Pd 4.2964 0.1358 -2.1872 0
M  V30 22 Pb 3.5898 -0.3332 -1.6595 0
M  V30 23 Pb 4.2287 -0.5900 -2.8685 0
M  V30 24 Pb 4.9261 0.6505 -2.7691 0
M  V30 25 Pb 4.3003 0.8449 -1.4834 0
M  V30 26 Pd -1.9593 6.4613 -1.1376 0
M  V30 27 Pb -0.9640 6.5715 -1.1267 0
M  V30 28 Pb -2.9374 6.2672 -1.1656 0
M  V30 29 Pb -2.0041 6.2919 -0.1549 0
M  V30 30 Pb -1.9021 6.5231 -2.1321 0
M  V30 31 Pd -5.5489 0.2590 -1.1424 0
M  V30 32 Pb -5.6404 0.1219 -0.1524 0
M  V30 33 Pb -5.8559 1.2034 -1.0464 0
M  V30 34 Pb -5.4701 0.3953 -2.1288 0
M  V30 35 Pb -5.1656 -0.6538 -1.2996 0
M  V30 36 Pd 2.4937 0.3294 4.9383 0
M  V30 37 Pb 2.7142 0.9836 4.2149 0
M  V30 38 Pb 2.3054 -0.3334 5.6583 0
M  V30 39 Pb 3.2144 -0.2689 4.5835 0
M  V30 40 Pb 1.7354 0.8844 5.2845 0
M  V30 41 Pd -0.7192 -6.1103 5.5540 0
M  V30 42 Pb -1.1584 -6.5864 4.7966 0
M  V30 43 Pb -1.5661 -5.6366 5.7876 0
M  V30 44 Pb -0.2565 -5.5618 6.2430 0
M  V30 45 Pb 0.1826 -6.3995 5.1998 0
M  V30 46 Ag 4.2295 1.3246 -0.9124 0
M  V30 47 Fe 3.5997 1.4909 1.3710 0
M  V30 48 Ag 2.9327 1.4248 3.6490 0
M  V30 49 Ag 3.1512 4.9654 -4.1143 0
M  V30 50 Fe 1.5771 5.8561 -2.5723 0
M  V30 51 Ag -0.2169 6.6017 -1.2032 0
M  V30 52 Ag -2.5280 -1.0025 -6.3542 0
M  V30 53 Fe -4.0453 -0.1978 -4.7185 0
M  V30 54 Ag -5.3821 0.4522 -2.8700 0
M  V30 55 Ag 1.4150 -5.0717 0.9127 0
M  V30 56 Fe -0.2492 -6.2302 2.1145 0
M  V30 57 Ag -1.3372 -6.8255 4.1180 0
M  V30 58 Ag -1.9163 -2.7289 -4.9898 0
M  V30 59 Fe -3.3790 -2.1442 -3.2061 0
M  V30 60 Ag -4.8322 -1.2898 -1.5266 0
M  V30 61 Ag 1.5734 4.7777 -5.7420 0
M  V30 62 Fe -0.1841 5.6928 -4.4364 0
M  V30 63 Ag -1.7723 6.4979 -2.8682 0
M  V30 64 Ag -0.1447 -0.9224 -7.3764 0
M  V30 65 Fe 1.2943 0.9626 -7.2299 0
M  V30 66 Ag 2.6764 2.8528 -6.8268 0
M  V30 67 Ag -2.8858 2.5265 3.5949 0
M  V30 68 Fe -2.4848 4.3054 2.0723 0
M  V30 69 Ag -2.0880 6.0966 0.5628 0
M  V30 70 Ag 2.1573 -0.8521 6.1739 0
M  V30 71 Fe 1.1658 -2.9644 6.5821 0
M  V30 72 Ag 0.1001 -5.0775 6.6814 0
M  V30 73 Ag -3.3530 -0.6734 4.9365 0
M  V30 74 Fe -2.8006 -2.9269 5.4552 0
M  V30 75 Ag -2.1331 -5.1626 5.9102 0
M  V30 76 Ag -3.6473 6.0346 -1.1435 0
M  V30 77 Fe -4.9714 4.0684 -1.0758 0
M  V30 78 Ag -6.0064 1.9352 -1.0231 0
M  V30 79 Ag 0.4784 -2.6629 -6.0010 0
M  V30 80 Fe 2.3844 -2.0451 -4.7332 0
M  V30 81 Ag 4.0868 -1.1428 -3.3513 0
M  V30 82 Ba 2.1976 -2.7410 0.5923 0
M  V30 83 Ga 2.6849 -1.7158 -0.3479 0
M  V30 84 Ba 3.0073 -0.6402 -1.3030 0
M  V30 85 Ba -4.5061 0.4309 3.2358 0
M  V30 86 Ga -5.0702 0.2590 1.8780 0
M  V30 87 Ba -5.7588 0.0353 0.5867 0
M  V30 88 Ba 4.6228 3.1677 -5.1668 0
M  V30 89 Ga 5.0121 2.1110 -4.2111 0
M  V30 90 Ba 5.3510 1.0501 -3.2410 0
M  V30 91 Ba 2.6750 -5.3826 2.8415 0
M  V30 92 Ga 1.7592 -5.9533 3.8729 0
M  V30 93 Ba 0.8720 -6.5530 4.9129 0
M  V30 94 Ba 3.7763 -3.0960 2.5423 0
M  V30 95 Ga 3.7499 -1.9111 3.4258 0
M  V30 96 Ba 3.7443 -0.7275 4.3113 0
M  V30 97 Ba -1.7764 1.4050 5.2158 0
M  V30 98 Ga -0.3088 1.3066 5.3701 0
M  V30 99 Ba 1.1541 1.2566 5.5825 0
M  V30 END ATOM
M  V30 BEGIN BOND
M  V30 1 1 1 2
M  V30 2 1 1 3
M  V30 3 1 1 4
M  V30 4 1 1 5
M  V30 5 1 6 7
M  V30 6 1 6 8
M  V30 7 1 6 9
M  V30 8 1 6 10
M  V30 9 1 11 12
M  V30 10 1 11 13
M  V30 11 1 11 14
M  V30 12 1 11 15
M  V30 13 1 16 17
M  V30 14 1 16 18
M  V30 15 1 16 19
M  V30 16 1 16 20
M  V30 17 1 21 22
M  V30 18 1 21 23
M  V30 19 1 21 24
M  V30 20 1 21 25
M  V30 21 1 26 27
M  V30 22 1 26 28
M  V30 23 1 26 29
M  V30 24 1 26 30
M  V30 25 1 31 32
M  V30 26 1 31 33
M  V30 27 1 31 34
M  V30 28 1 31 35
M  V30 29 1 36 37
M  V30 30 1 36 38
M  V30 31 1 36 39
M  V30 32 1 36 40
M  V30 33 1 41 42
M  V30 34 1 41 43
M  V30 35 1 41 44
M  V30 36 1 41 45
M  V30 37 1 46 47
M  V30 38 1 47 48
M  V30 39 1 49 50
M  V30 40 1 50 51
M  V30 41 1 52 53
M  V30 42 1 53 54
M  V30 43 1 55 56
M  V30 44 1 56 57
M  V30 45 1 58 59
M  V30 46 1 59 60
M  V30 47 1 61 62
M  V30 48 1 62 63
M  V30 49 1 64 65
M  V30 50 1 65 66
M  V30 51 1 67 68
M  V30 52 1 68 69
M  V30 53 1 70 71
M  V30 54 1 71 72
M  V30 55 1 73 74
M  V30 56 1 74 75
M  V30 57 1 76 77
M  V30 58 1 77 78
M  V30 59 1 79 80
M  V30 60 1 80 81
M  V30 61 1 82 83
M  V30 62 1 83 84
M  V30 63 1 85 86
M  V30 64 1 86 87
M  V30 65 1 88 89
M  V30 66 1 89 90
M  V30 67 1 91 92
M  V30 68 1 92 93
M  V30 69 1 94 95
M  V30 70 1 95 96
M  V30 71 1 97 98
M  V30 72 1 98 99
M  V30 73 1 2 85
M  V30 74 1 3 73
M  V30 75 1 4 67
M  V30 76 1 5 97
M  V30 77 1 7 82
M  V30 78 1 8 55
M  V30 79 1 9 94
M  V30 80 1 10 91
M  V30 81 1 12 58
M  V30 82 1 13 79
M  V30 83 1 14 64
M  V30 84 1 15 52
M  V30 85 1 17 66
M  V30 86 1 18 49
M  V30 87 1 19 88
M  V30 88 1 20 61
M  V30 89 1 22 84
M  V30 90 1 23 81
M  V30 91 1 24 90
M  V30 92 1 25 46
M  V30 93 1 27 51
M  V30 94 1 28 76
M  V30 95 1 29 69
M  V30 96 1 30 63
M  V30 97 1 32 87
M  V30 98 1 33 78
M  V30 99 1 34 54
M  V30 100 1 35 60
M  V30 101 1 37 48
M  V30 102 1 38 70
M  V30 103 1 39 96
M  V30 104 1 40 99
M  V30 105 1 42 57
M  V30 106 1 43 75
M  V30 107 1 44 72
M  V30 108 1 45 93
M  V30 END BOND
M  V30 END CTAB
M  END

$$$$
