
     RDKit          3D

  0  0  0  0  0  0  0  0  0  0999 V3000
M  V30 BEGIN CTAB
M  V30 COUNTS 99 108 0 0 0
M  V30 BEGIN ATOM
M  V30 1 Pd 3.9591 1.9701 -0.7124 0
M  V30 2 Pb 4.1021 1.9655 0.2779 0
M  V30 3 Pb 3.9860 2.9721 -0.7233 0
M  V30 4 Pb 4.0148 0.9724 -0.6900 0
M  V30 5 Pb 3.7467 1.9412 -1.6898 0
M  V30 6 Pd 2.4902 -3.3528 -2.8906 0
M  V30 7 Pb 1.8549 -2.6276 -3.1620 0
M  V30 8 Pb 1.9618 -3.9862 -3.4508 0
M  V30 9 Pb 2.9978 -2.7551 -2.2696 0
M  V30 10 Pb 3.0188 -4.1160 -2.5234 0
M  V30 11 Pd -2.0799 -3.9963 -1.8286 0
M  V30 12 Pb -2.4831 -3.4539 -1.0918 0
M  V30 13 Pb -1.6632 -4.5320 -2.5601 0
M  V30 14 Pb -2.1749 -4.8177 -1.2670 0
M  V30 15 Pb -1.8361 -3.1680 -2.3372 0
M  V30 16 Pd 1.9218 -1.9150 5.4865 0
M  V30 17 Pb 2.7327 -2.5011 5.4502 0
M  V30 18 Pb 1.0888 -1.3602 5.5013 0
M  V30 19 Pb 1.4005 -2.7033 5.8148 0
M  V30 20 Pb 2.4479 -1.1372 5.1368 0
M  V30 21 Pd -4.6210 0.8201 -1.3462 0
M  V30 22 Pb -4.8854 1.5449 -1.9845 0
M  V30 23 Pb -4.9881 1.3303 -0.5655 0
M  V30 24 Pb -4.3518 0.0870 -0.7229 0
M  V30 25 Pb -4.2498 0.3086 -2.1227 0
M  V30 26 Pd 2.0459 -6.5334 3.5428 0
M  V30 27 Pb 1.4934 -6.2917 4.3391 0
M  V30 28 Pb 2.8320 -6.1037 3.9873 0
M  V30 29 Pb 1.2320 -6.8705 3.0678 0
M  V30 30 Pb 2.5914 -6.6994 2.7216 0
M  V30 31 Pd 0.8022 6.5686 0.0360 0
M  V30 32 Pb -0.1646 6.7617 0.1922 0
M  V30 33 Pb 0.6679 6.7673 -0.9321 0
M  V30 34 Pb 0.8905 6.3059 0.9970 0
M  V30 35 Pb 1.7602 6.3423 -0.1394 0
M  V30 36 Pd -1.8889 2.5980 -5.2344 0
M  V30 37 Pb -1.5947 3.5507 -5.2350 0
M  V30 38 Pb -2.1699 1.6438 -5.1437 0
M  V30 39 Pb -0.9290 2.3364 -5.3315 0
M  V30 40 Pb -2.8286 2.8721 -5.0304 0
M  V30 41 Pd -2.6304 3.8680 2.8115 0
M  V30 42 Pb -2.4813 3.0725 3.3997 0
M  V30 43 Pb -1.7368 4.2333 3.0803 0
M  V30 44 Pb -2.7747 4.6804 2.2494 0
M  V30 45 Pb -3.5214 3.5136 2.5199 0
M  V30 46 Ag 0.4465 -0.9714 5.5057 0
M  V30 47 Fe -0.9445 0.7650 4.6722 0
M  V30 48 Ag -2.3589 2.4926 3.8602 0
M  V30 49 Ag 3.5352 1.8914 -2.4084 0
M  V30 50 Fe 1.7297 2.0165 -3.9468 0
M  V30 51 Ag -0.1944 2.1868 -5.3291 0
M  V30 52 Ag 3.3433 -4.6830 -2.1586 0
M  V30 53 Fe 3.2732 -5.8238 -0.0784 0
M  V30 54 Ag 2.9773 -6.7612 2.0821 0
M  V30 55 Ag 0.5146 6.8451 -1.6590 0
M  V30 56 Fe -0.3893 5.6816 -3.5164 0
M  V30 57 Ag -1.3324 4.2444 -5.1489 0
M  V30 58 Ag 4.1673 1.9127 1.0239 0
M  V30 59 Fe 3.5340 0.7097 2.9733 0
M  V30 60 Ag 2.8418 -0.5598 4.8595 0
M  V30 61 Ag -2.1456 -5.4081 -0.8058 0
M  V30 62 Fe -0.8508 -6.3461 0.9507 0
M  V30 63 Ag 0.6152 -7.0533 2.6808 0
M  V30 64 Ba -0.8956 6.8725 0.3068 0
M  V30 65 Ga -1.9024 6.1107 1.0641 0
M  V30 66 Ba -2.8567 5.3017 1.8403 0
M  V30 67 Ba 3.3081 -2.9827 5.4150 0
M  V30 68 Ga 3.3989 -4.3554 4.8796 0
M  V30 69 Ba 3.3862 -5.7200 4.3168 0
M  V30 70 Ba 4.0650 3.7205 -0.7214 0
M  V30 71 Ga 3.2441 4.9281 -0.5016 0
M  V30 72 Ba 2.4741 6.1707 -0.2922 0
M  V30 73 Ba -2.7809 -3.0578 -0.5292 0
M  V30 74 Ga -3.4656 -1.7589 -0.3972 0
M  V30 75 Ba -4.1514 -0.4618 -0.2539 0
M  V30 76 Ba 1.0308 -3.3174 6.0370 0
M  V30 77 Ga 1.0285 -4.6983 5.5201 0
M  V30 78 Ba 1.0985 -6.0458 4.9259 0
M  V30 79 Ba 1.5112 -4.4580 -3.8141 0
M  V30 80 Ga 0.0962 -4.7378 -3.5315 0
M  V30 81 Ba -1.3033 -4.8899 -3.1089 0
M  V30 82 Ba -5.2661 1.6903 0.0337 0
M  V30 83 Ga -4.7160 2.4789 1.1563 0
M  V30 84 Ba -4.1955 3.2712 2.2904 0
M  V30 85 Ba 1.2994 -2.1502 -3.3332 0
M  V30 86 Ga -0.1463 -2.2899 -3.0543 0
M  V30 87 Ba -1.5547 -2.5738 -2.7032 0
M  V30 88 Ba 0.9072 6.0778 1.7116 0
M  V30 89 Ga -0.0601 5.3012 2.5128 0
M  V30 90 Ba -1.0662 4.5215 3.2618 0
M  V30 91 Ba -3.9697 -0.0514 -2.7196 0
M  V30 92 Ga -3.1855 0.4033 -3.8833 0
M  V30 93 Ba -2.4036 0.9449 -5.0108 0
M  V30 94 Ba 4.1197 0.2330 -0.6270 0
M  V30 95 Ga 3.7098 -1.0408 -1.2474 0
M  V30 96 Ba 3.4019 -2.3919 -1.7521 0
M  V30 97 Ba -5.0609 2.0641 -2.4984 0
M  V30 98 Ga -4.3261 2.5889 -3.6662 0
M  V30 99 Ba -3.5213 3.0580 -4.8111 0
M  V30 END ATOM
M  V30 BEGIN BOND
M  V30 1 1 1 2
M  V30 2 1 1 3
M  V30 3 1 1 4
M  V30 4 1 1 5
M  V30 5 1 6 7
M  V30 6 1 6 8
M  V30 7 1 6 9
M  V30 8 1 6 10
M  V30 9 1 11 12
M  V30 10 1 11 13
M  V30 11 1 11 14
M  V30 12 1 11 15
M  V30 13 1 16 17
M  V30 14 1 16 18
M  V30 15 1 16 19
M  V30 16 1 16 20
M  V30 17 1 21 22
M  V30 18 1 21 23
M  V30 19 1 21 24
M  V30 20 1 21 25
M  V30 21 1 26 27
M  V30 22 1 26 28
M  V30 23 1 26 29
M  V30 24 1 26 30
M  V30 25 1 31 32
M  V30 26 1 31 33
M  V30 27 1 31 34
M  V30 28 1 31 35
M  V30 29 1 36 37
M  V30 30 1 36 38
M  V30 31 1 36 39
M  V30 32 1 36 40
M  V30 33 1 41 42
M  V30 34 1 41 43
M  V30 35 1 41 44
M  V30 36 1 41 45
M  V30 37 1 46 47
M  V30 38 1 47 48
M  V30 39 1 49 50
M  V30 40 1 50 51
M  V30 41 1 52 53
M  V30 42 1 53 54
M  V30 43 1 55 56
M  V30 44 1 56 57
M  V30 45 1 58 59
M  V30 46 1 59 60
M  V30 47 1 61 62
M  V30 48 1 62 63
M  V30 49 1 64 65
M  V30 50 1 65 66
M  V30 51 1 67 68
M  V30 52 1 68 69
M  V30 53 1 70 71
M  V30 54 1 71 72
M  V30 55 1 73 74
M  V30 56 1 74 75
M  V30 57 1 76 77
M  V30 58 1 77 78
M  V30 59 1 79 80
M  V30 60 1 80 81
M  V30 61 1 82 83
M  V30 62 1 83 84
M  V30 63 1 85 86
M  V30 64 1 86 87
M  V30 65 1 88 89
M  V30 66 1 89 90
M  V30 67 1 91 92
M  V30 68 1 92 93
M  V30 69 1 94 95
M  V30 70 1 95 96
M  V30 71 1 97 98
M  V30 72 1 98 99
M  V30 73 1 2 58
M  V30 74 1 3 70
M  V30 75 1 4 94
M  V30 76 1 5 49
M  V30 77 1 7 85
M  V30 78 1 8 79
M  V30 79 1 9 96
M  V30 80 1 10 52
M  V30 81 1 12 73
M  V30 82 1 13 81
M  V30 83 1 14 61
M  V30 84 1 15 87
M  V30 85 1 17 67
M  V30 86 1 18 46
M  V30 87 1 19 76
M  V30 88 1 20 60
M  V30 89 1 22 97
M  V30 90 1 23 82
M  V30 91 1 24 75
M  V30 92 1 25 91
M  V30 93 1 27 78
M  V30 94 1 28 69
M  V30 95 1 29 63
M  V30 96 1 30 54
M  V30 97 1 32 64
M  V30 98 1 33 55
M  V30 99 1 34 88
M  V30 100 1 35 72
M  V30 101 1 37 57
M  V30 102 1 38 93
M  V30 103 1 39 51
M  V30 104 1 40 99
M  V30 105 1 42 48
M  V30 106 1 43 90
M  V30 107 1 44 66
M  V30 108 1 45 84
M  V30 END BOND
M  V30 END CTAB
M  END

$$$$
