
     RDKit          3D

  0  0  0  0  0  0  0  0  0  0999 V3000
M  V30 BEGIN CTAB
M  V30 COUNTS 99 108 0 0 0
M  V30 BEGIN ATOM
M  V30 1 Pd -3.8888 2.2729 2.7147 0
M  V30 2 Pb -3.1613 2.9510 2.8101 0
M  V30 3 Pb -3.7713 2.0045 3.6721 0
M  V30 4 Pb -4.0835 2.6137 1.7944 0
M  V30 5 Pb -4.5352 1.5238 2.5847 0
M  V30 6 Pd 2.9454 -5.4361 4.2685 0
M  V30 7 Pb 3.4016 -5.3011 3.3896 0
M  V30 8 Pb 3.0766 -4.4802 4.5433 0
M  V30 9 Pb 2.5449 -6.3097 4.0078 0
M  V30 10 Pb 2.4787 -5.5779 5.1302 0
M  V30 11 Pd 4.5556 1.3391 -3.6063 0
M  V30 12 Pb 4.4612 1.8904 -2.7502 0
M  V30 13 Pb 4.6491 0.4776 -3.0987 0
M  V30 14 Pb 4.5618 0.8651 -4.4828 0
M  V30 15 Pb 4.5758 2.1696 -4.1433 0
M  V30 16 Pd 0.5369 1.3457 -6.8236 0
M  V30 17 Pb 1.5088 1.1297 -6.9395 0
M  V30 18 Pb 0.6634 2.3349 -6.9471 0
M  V30 19 Pb 0.3968 0.3899 -6.5830 0
M  V30 20 Pb -0.4413 1.5048 -6.7295 0
M  V30 21 Pd 2.3060 -3.6369 -1.2856 0
M  V30 22 Pb 2.8431 -3.9990 -0.5205 0
M  V30 23 Pb 3.1077 -3.0809 -1.5188 0
M  V30 24 Pb 1.8271 -3.3556 -2.1153 0
M  V30 25 Pb 1.4865 -4.1609 -1.0441 0
M  V30 26 Pd -2.0330 5.1068 -4.3297 0
M  V30 27 Pb -1.2982 5.2053 -5.0099 0
M  V30 28 Pb -1.7294 5.9054 -3.8052 0
M  V30 29 Pb -2.7364 4.9313 -3.6423 0
M  V30 30 Pb -2.3769 4.3293 -4.8475 0
M  V30 31 Pd 1.8126 5.9331 -0.9506 0
M  V30 32 Pb 1.3610 5.6740 -0.0964 0
M  V30 33 Pb 1.0860 6.5896 -1.1374 0
M  V30 34 Pb 2.2407 6.2506 -1.7847 0
M  V30 35 Pb 2.5101 5.1905 -0.8595 0
M  V30 36 Pd -3.7851 -5.1596 3.3103 0
M  V30 37 Pb -3.3658 -5.2713 2.4083 0
M  V30 38 Pb -4.1719 -4.9971 4.2233 0
M  V30 39 Pb -3.1828 -5.9127 3.5832 0
M  V30 40 Pb -4.3588 -4.4029 2.9989 0
M  V30 41 Pd -2.3655 -1.7344 6.7811 0
M  V30 42 Pb -1.4234 -1.4099 6.6401 0
M  V30 43 Pb -2.7529 -0.8423 6.5436 0
M  V30 44 Pb -3.2569 -2.1870 6.8156 0
M  V30 45 Pb -1.9719 -2.5851 7.1009 0
M  V30 46 Ag -2.5735 3.4138 2.8536 0
M  V30 47 Fe -0.7833 4.4840 1.7178 0
M  V30 48 Ag 0.9942 5.5333 0.5431 0
M  V30 49 Ag 0.8345 -4.5136 -0.9144 0
M  V30 50 Fe -1.0799 -4.9485 0.4262 0
M  V30 51 Ag -2.9941 -5.3871 1.7658 0
M  V30 52 Ag 0.3128 -0.3046 -6.3248 0
M  V30 53 Fe 0.8761 -1.7817 -4.5565 0
M  V30 54 Ag 1.4726 -3.2086 -2.7582 0
M  V30 55 Ag 4.5732 2.8268 -4.4758 0
M  V30 56 Fe 3.7184 4.9283 -3.8747 0
M  V30 57 Ag 2.5718 6.3782 -2.4294 0
M  V30 58 Ag 2.0555 -5.6436 5.7323 0
M  V30 59 Fe 0.2007 -4.5762 6.7260 0
M  V30 60 Ag -1.6158 -3.1939 7.3236 0
M  V30 61 Ag 2.9891 -3.7717 4.7896 0
M  V30 62 Fe 1.2578 -2.3842 5.6602 0
M  V30 63 Ag -0.6903 -1.2912 6.4924 0
M  V30 64 Ag 2.0402 -6.8538 3.9208 0
M  V30 65 Fe -0.3307 -6.8814 3.7759 0
M  V30 66 Ag -2.6653 -6.4549 3.6552 0
M  V30 67 Ag -4.2707 2.9146 1.1325 0
M  V30 68 Fe -3.7466 3.8306 -0.9951 0
M  V30 69 Ag -3.2503 4.7489 -3.1285 0
M  V30 70 Ag -4.9526 0.9123 2.4787 0
M  V30 71 Fe -4.9554 -1.4573 2.6106 0
M  V30 72 Ag -4.7826 -3.8165 2.8038 0
M  V30 73 Ba 3.7662 -5.2061 2.7420 0
M  V30 74 Ga 3.4800 -4.7265 1.3751 0
M  V30 75 Ba 3.3362 -4.2749 -0.0230 0
M  V30 76 Ba 0.7121 3.0880 -6.9824 0
M  V30 77 Ga -0.0061 4.1731 -6.2688 0
M  V30 78 Ba -0.7501 5.2240 -5.5310 0
M  V30 79 Ba 4.4006 2.3087 -2.1035 0
M  V30 80 Ga 3.6738 3.4812 -1.5086 0
M  V30 81 Ba 3.0325 4.6270 -0.7785 0
M  V30 82 Ba -1.1728 1.6265 -6.6539 0
M  V30 83 Ga -1.9330 2.6711 -5.9571 0
M  V30 84 Ba -2.6274 3.7467 -5.2390 0
M  V30 85 Ba 4.5085 0.6125 -5.1840 0
M  V30 86 Ga 3.3800 0.7265 -6.1276 0
M  V30 87 Ba 2.2138 0.8776 -7.0191 0
M  V30 88 Ba -4.4967 -4.7883 4.8727 0
M  V30 89 Ga -4.2116 -3.7222 5.8604 0
M  V30 90 Ba -3.8577 -2.6386 6.8057 0
M  V30 91 Ba -3.7370 1.8652 4.4095 0
M  V30 92 Ga -3.3597 0.8068 5.3672 0
M  V30 93 Ba -3.0263 -0.1504 6.4407 0
M  V30 94 Ba -1.5449 6.5028 -3.3860 0
M  V30 95 Ga -0.5179 6.8004 -2.3695 0
M  V30 96 Ba 0.5340 7.0398 -1.3634 0
M  V30 97 Ba 4.8128 -0.1684 -2.7455 0
M  V30 98 Ga 4.1986 -1.4049 -2.2142 0
M  V30 99 Ba 3.7386 -2.6878 -1.6385 0
M  V30 END ATOM
M  V30 BEGIN BOND
M  V30 1 1 1 2
M  V30 2 1 1 3
M  V30 3 1 1 4
M  V30 4 1 1 5
M  V30 5 1 6 7
M  V30 6 1 6 8
M  V30 7 1 6 9
M  V30 8 1 6 10
M  V30 9 1 11 12
M  V30 10 1 11 13
M  V30 11 1 11 14
M  V30 12 1 11 15
M  V30 13 1 16 17
M  V30 14 1 16 18
M  V30 15 1 16 19
M  V30 16 1 16 20
M  V30 17 1 21 22
M  V30 18 1 21 23
M  V30 19 1 21 24
M  V30 20 1 21 25
M  V30 21 1 26 27
M  V30 22 1 26 28
M  V30 23 1 26 29
M  V30 24 1 26 30
M  V30 25 1 31 32
M  V30 26 1 31 33
M  V30 27 1 31 34
M  V30 28 1 31 35
M  V30 29 1 36 37
M  V30 30 1 36 38
M  V30 31 1 36 39
M  V30 32 1 36 40
M  V30 33 1 41 42
M  V30 34 1 41 43
M  V30 35 1 41 44
M  V30 36 1 41 45
M  V30 37 1 46 47
M  V30 38 1 47 48
M  V30 39 1 49 50
M  V30 40 1 50 51
M  V30 41 1 52 53
M  V30 42 1 53 54
M  V30 43 1 55 56
M  V30 44 1 56 57
M  V30 45 1 58 59
M  V30 46 1 59 60
M  V30 47 1 61 62
M  V30 48 1 62 63
M  V30 49 1 64 65
M  V30 50 1 65 66
M  V30 51 1 67 68
M  V30 52 1 68 69
M  V30 53 1 70 71
M  V30 54 1 71 72
M  V30 55 1 73 74
M  V30 56 1 74 75
M  V30 57 1 76 77
M  V30 58 1 77 78
M  V30 59 1 79 80
M  V30 60 1 80 81
M  V30 61 1 82 83
M  V30 62 1 83 84
M  V30 63 1 85 86
M  V30 64 1 86 87
M  V30 65 1 88 89
M  V30 66 1 89 90
M  V30 67 1 91 92
M  V30 68 1 92 93
M  V30 69 1 94 95
M  V30 70 1 95 96
M  V30 71 1 97 98
M  V30 72 1 98 99
M  V30 73 1 2 46
M  V30 74 1 3 91
M  V30 75 1 4 67
M  V30 76 1 5 70
M  V30 77 1 7 73
M  V30 78 1 8 61
M  V30 79 1 9 64
M  V30 80 1 10 58
M  V30 81 1 12 79
M  V30 82 1 13 97
M  V30 83 1 14 85
M  V30 84 1 15 55
M  V30 85 1 17 87
M  V30 86 1 18 76
M  V30 87 1 19 52
M  V30 88 1 20 82
M  V30 89 1 22 75
M  V30 90 1 23 99
M  V30 91 1 24 54
M  V30 92 1 25 49
M  V30 93 1 27 78
M  V30 94 1 28 94
M  V30 95 1 29 69
M  V30 96 1 30 84
M  V30 97 1 32 48
M  V30 98 1 33 96
M  V30 99 1 34 57
M  V30 100 1 35 81
M  V30 101 1 37 51
M  V30 102 1 38 88
M  V30 103 1 39 66
M  V30 104 1 40 72
M  V30 105 1 42 63
M  V30 106 1 43 93
M  V30 107 1 44 90
M  V30 108 1 45 60
M  V30 END BOND
M  V30 END CTAB
M  END

$$$$
