
     RDKit          3D

  0  0  0  0  0  0  0  0  0  0999 V3000
M  V30 BEGIN CTAB
M  V30 COUNTS 99 108 0 0 0
M  V30 BEGIN ATOM
M  V30 1 Pd -3.0266 -3.4928 -5.1108 0
M  V30 2 Pb -3.3448 -2.6002 -5.4389 0
M  V30 3 Pb -3.5136 -3.3836 -4.2229 0
M  V30 4 Pb -2.6804 -4.3722 -4.8088 0
M  V30 5 Pb -2.4554 -3.5752 -5.9236 0
M  V30 6 Pd 1.1501 -2.5292 5.0655 0
M  V30 7 Pb 1.6527 -1.7899 5.5191 0
M  V30 8 Pb 0.3487 -2.2412 5.5763 0
M  V30 9 Pb 0.5936 -3.2515 4.6478 0
M  V30 10 Pb 1.9761 -2.8219 4.5808 0
M  V30 11 Pd -0.8103 3.9375 -0.0278 0
M  V30 12 Pb -1.4956 3.3648 -0.4758 0
M  V30 13 Pb -1.5279 4.3627 0.5229 0
M  V30 14 Pb -0.1095 3.5637 -0.6361 0
M  V30 15 Pb -0.1146 4.4609 0.4652 0
M  V30 16 Pd -1.1217 1.5098 -4.7920 0
M  V30 17 Pb -1.6999 1.4815 -3.9786 0
M  V30 18 Pb -1.8841 1.1259 -5.3149 0
M  V30 19 Pb -0.3599 1.8386 -4.2314 0
M  V30 20 Pb -0.5549 1.5999 -5.6140 0
M  V30 21 Pd 4.6328 -0.8538 0.9403 0
M  V30 22 Pb 4.5684 -1.5390 0.2143 0
M  V30 23 Pb 4.7532 -0.1404 1.6312 0
M  V30 24 Pb 4.7464 -0.1730 0.2173 0
M  V30 25 Pb 4.5240 -1.5642 1.6385 0
M  V30 26 Pd 2.0513 2.9718 4.5069 0
M  V30 27 Pb 2.8933 2.6334 4.0842 0
M  V30 28 Pb 1.2678 3.3708 4.9939 0
M  V30 29 Pb 2.1622 2.2451 5.1884 0
M  V30 30 Pb 1.9791 3.7006 3.8216 0
M  V30 31 Pd -2.8144 -3.7793 0.9315 0
M  V30 32 Pb -3.2853 -2.9872 1.3272 0
M  V30 33 Pb -3.2930 -3.5836 0.0505 0
M  V30 34 Pb -2.4012 -4.5867 0.5293 0
M  V30 35 Pb -2.3359 -4.0203 1.7823 0
M  V30 36 Pd 3.3176 -0.6801 -6.2093 0
M  V30 37 Pb 2.8811 0.0542 -6.7240 0
M  V30 38 Pb 2.8193 -1.3330 -6.7745 0
M  V30 39 Pb 3.7449 -0.0289 -5.5839 0
M  V30 40 Pb 3.6440 -1.4067 -5.6057 0
M  V30 41 Pd -3.4378 2.9699 4.6199 0
M  V30 42 Pb -3.5171 3.6842 3.9287 0
M  V30 43 Pb -3.3422 2.2454 5.2915 0
M  V30 44 Pb -3.9949 2.3398 4.0815 0
M  V30 45 Pb -2.7729 3.5179 5.1250 0
M  V30 46 Ag -2.4118 -4.9724 -4.4722 0
M  V30 47 Fe -2.0795 -5.5043 -2.2041 0
M  V30 48 Ag -2.1473 -5.1474 0.1209 0
M  V30 49 Ag -1.9449 -3.6034 -6.4671 0
M  V30 50 Fe 0.2203 -2.7914 -6.9861 0
M  V30 51 Ag 2.3627 -1.7909 -7.1474 0
M  V30 52 Ag 4.5536 -1.9923 -0.3837 0
M  V30 53 Fe 4.2216 -2.0766 -2.7341 0
M  V30 54 Ag 3.8374 -1.8950 -5.0708 0
M  V30 55 Ag 4.8236 0.2822 -0.3731 0
M  V30 56 Fe 4.4803 0.4709 -2.7144 0
M  V30 57 Ag 4.0315 0.4043 -5.0445 0
M  V30 58 Ag -0.2380 -1.9763 5.9465 0
M  V30 59 Fe -1.8167 -0.2164 5.9909 0
M  V30 60 Ag -3.2280 1.6637 5.7374 0
M  V30 61 Ag -3.6955 -2.3998 1.5594 0
M  V30 62 Fe -4.0284 -0.3006 2.6231 0
M  V30 63 Ag -4.3389 1.7973 3.6961 0
M  V30 64 Ba 1.9756 -1.2312 5.9063 0
M  V30 65 Ga 2.1325 0.2328 5.7698 0
M  V30 66 Ba 2.3155 1.6975 5.6817 0
M  V30 67 Ba -3.8877 -3.2876 -3.5587 0
M  V30 68 Ga -3.7099 -3.3874 -2.0744 0
M  V30 69 Ba -3.7134 -3.4301 -0.5769 0
M  V30 70 Ba 4.8963 0.4190 2.1104 0
M  V30 71 Ga 4.1719 1.3859 2.9584 0
M  V30 72 Ba 3.5650 2.4013 3.8411 0
M  V30 73 Ba -2.0760 4.7023 0.9054 0
M  V30 74 Ga -2.8160 4.4600 2.1555 0
M  V30 75 Ba -3.5550 4.2166 3.4059 0
M  V30 76 Ba 0.4006 3.3094 -1.1244 0
M  V30 77 Ga 0.3137 2.6810 -2.4577 0
M  V30 78 Ba 0.2091 2.0536 -3.7902 0
M  V30 79 Ba 0.7217 3.7275 5.3746 0
M  V30 80 Ga -0.7542 3.7950 5.4244 0
M  V30 81 Ba -2.2286 3.8779 5.4931 0
M  V30 82 Ba 0.4098 4.8315 0.8540 0
M  V30 83 Ga 1.1715 4.5407 2.0861 0
M  V30 84 Ba 1.9378 4.2583 3.3174 0
M  V30 85 Ba -3.5579 -1.9362 -5.7227 0
M  V30 86 Ga -3.0213 -0.5592 -5.6950 0
M  V30 87 Ba -2.4745 0.8135 -5.6586 0
M  V30 88 Ba -0.1175 1.7035 -6.2178 0
M  V30 89 Ga 1.1779 1.1628 -6.6722 0
M  V30 90 Ba 2.4737 0.5786 -7.0673 0
M  V30 91 Ba -1.9965 2.9071 -0.7938 0
M  V30 92 Ga -2.0793 2.1968 -2.0819 0
M  V30 93 Ba -2.1435 1.4955 -3.3760 0
M  V30 94 Ba 0.1315 -3.7912 4.3977 0
M  V30 95 Ga -0.9068 -3.9837 3.3597 0
M  V30 96 Ba -1.9633 -4.3063 2.3740 0
M  V30 97 Ba 2.6122 -3.0454 4.2490 0
M  V30 98 Ga 3.5138 -2.5584 3.1851 0
M  V30 99 Ba 4.4563 -2.1271 2.1325 0
M  V30 END ATOM
M  V30 BEGIN BOND
M  V30 1 1 1 2
M  V30 2 1 1 3
M  V30 3 1 1 4
M  V30 4 1 1 5
M  V30 5 1 6 7
M  V30 6 1 6 8
M  V30 7 1 6 9
M  V30 8 1 6 10
M  V30 9 1 11 12
M  V30 10 1 11 13
M  V30 11 1 11 14
M  V30 12 1 11 15
M  V30 13 1 16 17
M  V30 14 1 16 18
M  V30 15 1 16 19
M  V30 16 1 16 20
M  V30 17 1 21 22
M  V30 18 1 21 23
M  V30 19 1 21 24
M  V30 20 1 21 25
M  V30 21 1 26 27
M  V30 22 1 26 28
M  V30 23 1 26 29
M  V30 24 1 26 30
M  V30 25 1 31 32
M  V30 26 1 31 33
M  V30 27 1 31 34
M  V30 28 1 31 35
M  V30 29 1 36 37
M  V30 30 1 36 38
M  V30 31 1 36 39
M  V30 32 1 36 40
M  V30 33 1 41 42
M  V30 34 1 41 43
M  V30 35 1 41 44
M  V30 36 1 41 45
M  V30 37 1 46 47
M  V30 38 1 47 48
M  V30 39 1 49 50
M  V30 40 1 50 51
M  V30 41 1 52 53
M  V30 42 1 53 54
M  V30 43 1 55 56
M  V30 44 1 56 57
M  V30 45 1 58 59
M  V30 46 1 59 60
M  V30 47 1 61 62
M  V30 48 1 62 63
M  V30 49 1 64 65
M  V30 50 1 65 66
M  V30 51 1 67 68
M  V30 52 1 68 69
M  V30 53 1 70 71
M  V30 54 1 71 72
M  V30 55 1 73 74
M  V30 56 1 74 75
M  V30 57 1 76 77
M  V30 58 1 77 78
M  V30 59 1 79 80
M  V30 60 1 80 81
M  V30 61 1 82 83
M  V30 62 1 83 84
M  V30 63 1 85 86
M  V30 64 1 86 87
M  V30 65 1 88 89
M  V30 66 1 89 90
M  V30 67 1 91 92
M  V30 68 1 92 93
M  V30 69 1 94 95
M  V30 70 1 95 96
M  V30 71 1 97 98
M  V30 72 1 98 99
M  V30 73 1 2 85
M  V30 74 1 3 67
M  V30 75 1 4 46
M  V30 76 1 5 49
M  V30 77 1 7 64
M  V30 78 1 8 58
M  V30 79 1 9 94
M  V30 80 1 10 97
M  V30 81 1 12 91
M  V30 82 1 13 73
M  V30 83 1 14 76
M  V30 84 1 15 82
M  V30 85 1 17 93
M  V30 86 1 18 87
M  V30 87 1 19 78
M  V30 88 1 20 88
M  V30 89 1 22 52
M  V30 90 1 23 70
M  V30 91 1 24 55
M  V30 92 1 25 99
M  V30 93 1 27 72
M  V30 94 1 28 79
M  V30 95 1 29 66
M  V30 96 1 30 84
M  V30 97 1 32 61
M  V30 98 1 33 69
M  V30 99 1 34 48
M  V30 100 1 35 96
M  V30 101 1 37 90
M  V30 102 1 38 51
M  V30 103 1 39 57
M  V30 104 1 40 54
M  V30 105 1 42 75
M  V30 106 1 43 60
M  V30 107 1 44 63
M  V30 108 1 45 81
M  V30 END BOND
M  V30 END CTAB
M  END

$$$$
