
     RDKit          3D

  0  0  0  0  0  0  0  0  0  0999 V3000
M  V30 BEGIN CTAB
M  V30 COUNTS 99 108 0 0 0
M  V30 BEGIN ATOM
M  V30 1 Pd 2.2708 6.1109 0.6411 0
M  V30 2 Pb 2.1027 6.7710 1.3647 0
M  V30 3 Pb 1.8774 5.4018 1.2281 0
M  V30 4 Pb 2.3956 5.4436 -0.0984 0
M  V30 5 Pb 2.7260 6.8476 0.1051 0
M  V30 6 Pd 2.3591 11.6856 -1.5838 0
M  V30 7 Pb 2.0784 11.7407 -0.6322 0
M  V30 8 Pb 1.7356 12.4165 -1.8515 0
M  V30 9 Pb 2.8823 10.8396 -1.3766 0
M  V30 10 Pb 2.6608 11.6421 -2.5452 0
M  V30 11 Pd -2.6245 -12.1284 5.7568 0
M  V30 12 Pb -2.9901 -11.2016 5.7049 0
M  V30 13 Pb -2.3059 -13.0689 5.8476 0
M  V30 14 Pb -2.0578 -11.8687 6.5385 0
M  V30 15 Pb -2.7553 -12.2541 4.7543 0
M  V30 16 Pd 1.1860 -11.3003 2.3901 0
M  V30 17 Pb 0.2561 -11.5686 2.0750 0
M  V30 18 Pb 1.3407 -12.2408 2.6756 0
M  V30 19 Pb 1.1630 -10.3864 1.9701 0
M  V30 20 Pb 1.8274 -11.0103 3.0999 0
M  V30 21 Pd 0.3537 5.0760 -4.5418 0
M  V30 22 Pb 0.9412 4.6584 -3.8425 0
M  V30 23 Pb -0.4675 4.6795 -4.1319 0
M  V30 24 Pb -0.2160 5.5176 -5.2401 0
M  V30 25 Pb 1.1615 5.4414 -4.9995 0
M  V30 26 Pd 0.8946 9.6720 -6.6503 0
M  V30 27 Pb 1.6268 10.2494 -6.2756 0
M  V30 28 Pb 0.2723 10.4429 -6.5294 0
M  V30 29 Pb 1.5399 8.9137 -6.7056 0
M  V30 30 Pb 0.1602 9.0451 -6.9092 0
M  V30 31 Pd -1.1730 -6.3986 2.2420 0
M  V30 32 Pb -0.5544 -6.0320 2.9304 0
M  V30 33 Pb -1.9361 -6.3229 2.8729 0
M  V30 34 Pb -0.4008 -6.6824 1.6837 0
M  V30 35 Pb -1.7984 -6.5880 1.4925 0
M  V30 36 Pd 0.2738 -1.1858 2.9072 0
M  V30 37 Pb 0.3927 -2.1268 3.2409 0
M  V30 38 Pb 0.4007 -0.2084 3.0768 0
M  V30 39 Pb -0.0974 -1.8658 2.2504 0
M  V30 40 Pb -0.6435 -1.1176 3.2878 0
M  V30 41 Pd -3.1283 -1.1423 -1.7324 0
M  V30 42 Pb -2.5829 -1.7634 -1.1338 0
M  V30 43 Pb -3.7484 -1.0097 -0.9651 0
M  V30 44 Pb -3.3507 -2.1152 -1.7505 0
M  V30 45 Pb -3.2775 -0.2011 -2.0315 0
M  V30 46 Ag -3.2578 -10.5050 5.6611 0
M  V30 47 Fe -3.0386 -8.3814 4.6356 0
M  V30 48 Ag -2.4605 -6.4596 3.3797 0
M  V30 49 Ag 1.9614 7.3525 1.8011 0
M  V30 50 Fe 1.8221 9.6653 1.3733 0
M  V30 51 Ag 1.9129 11.6333 0.0811 0
M  V30 52 Ag 1.2243 12.8113 -2.2202 0
M  V30 53 Fe 0.2486 12.3141 -4.3136 0
M  V30 54 Ag -0.0723 11.0582 -6.2893 0
M  V30 55 Ag -1.3720 -1.0508 3.4076 0
M  V30 56 Fe -3.1467 -0.9400 1.8615 0
M  V30 57 Ag -4.0764 -0.9389 -0.3039 0
M  V30 58 Ag -1.0975 4.3690 -3.8689 0
M  V30 59 Fe -2.2493 2.4636 -3.0440 0
M  V30 60 Ag -3.3393 0.5202 -2.2237 0
M  V30 61 Ag -1.9381 -13.7091 5.8054 0
M  V30 62 Fe -0.0441 -14.0204 4.4595 0
M  V30 63 Ag 1.3704 -12.9340 2.9358 0
M  V30 64 Ag -1.4198 -11.6318 6.8584 0
M  V30 65 Fe 0.5928 -11.1168 5.6982 0
M  V30 66 Ag 2.0219 -10.8679 3.8120 0
M  V30 67 Ag 1.6112 4.8995 1.7192 0
M  V30 68 Fe 1.0487 2.6996 2.4180 0
M  V30 69 Ag 0.4602 0.5309 3.1894 0
M  V30 70 Ag -2.2504 -6.5577 0.9029 0
M  V30 71 Fe -3.0066 -4.8451 -0.5474 0
M  V30 72 Ag -3.4913 -2.8491 -1.7274 0
M  V30 73 Ba 1.2487 -9.7381 1.5888 0
M  V30 74 Ga 0.7011 -8.3719 1.4597 0
M  V30 75 Ba 0.1643 -7.0025 1.3180 0
M  V30 76 Ba 2.9073 11.6492 -3.2624 0
M  V30 77 Ga 2.5130 11.1412 -4.5998 0
M  V30 78 Ba 2.1763 10.6634 -5.9640 0
M  V30 79 Ba -2.7046 -12.2947 3.9826 0
M  V30 80 Ga -1.6004 -12.0412 2.9843 0
M  V30 81 Ba -0.4838 -11.7831 2.0012 0
M  V30 82 Ba -0.4020 -2.3354 1.7261 0
M  V30 83 Ga -1.2935 -2.2362 0.5257 0
M  V30 84 Ba -2.1757 -2.2395 -0.6856 0
M  V30 85 Ba -0.1051 -5.6674 3.4014 0
M  V30 86 Ga 0.2152 -4.2274 3.4790 0
M  V30 87 Ba 0.5458 -2.7906 3.5688 0
M  V30 88 Ba 3.1403 7.3865 -0.2522 0
M  V30 89 Ga 3.1226 8.8005 -0.7387 0
M  V30 90 Ba 3.2717 10.1871 -1.2788 0
M  V30 91 Ba 2.4727 4.9213 -0.6366 0
M  V30 92 Ga 1.9240 4.6604 -1.9866 0
M  V30 93 Ba 1.4089 4.3480 -3.3388 0
M  V30 94 Ba -0.6267 5.8663 -5.7672 0
M  V30 95 Ga -0.5273 7.1851 -6.4272 0
M  V30 96 Ba -0.3590 8.5197 -7.0397 0
M  V30 97 Ba 1.7393 5.7237 -5.3808 0
M  V30 98 Ga 1.9240 7.0188 -6.0534 0
M  V30 99 Ba 2.0179 8.3395 -6.6943 0
M  V30 END ATOM
M  V30 BEGIN BOND
M  V30 1 1 1 2
M  V30 2 1 1 3
M  V30 3 1 1 4
M  V30 4 1 1 5
M  V30 5 1 6 7
M  V30 6 1 6 8
M  V30 7 1 6 9
M  V30 8 1 6 10
M  V30 9 1 11 12
M  V30 10 1 11 13
M  V30 11 1 11 14
M  V30 12 1 11 15
M  V30 13 1 16 17
M  V30 14 1 16 18
M  V30 15 1 16 19
M  V30 16 1 16 20
M  V30 17 1 21 22
M  V30 18 1 21 23
M  V30 19 1 21 24
M  V30 20 1 21 25
M  V30 21 1 26 27
M  V30 22 1 26 28
M  V30 23 1 26 29
M  V30 24 1 26 30
M  V30 25 1 31 32
M  V30 26 1 31 33
M  V30 27 1 31 34
M  V30 28 1 31 35
M  V30 29 1 36 37
M  V30 30 1 36 38
M  V30 31 1 36 39
M  V30 32 1 36 40
M  V30 33 1 41 42
M  V30 34 1 41 43
M  V30 35 1 41 44
M  V30 36 1 41 45
M  V30 37 1 46 47
M  V30 38 1 47 48
M  V30 39 1 49 50
M  V30 40 1 50 51
M  V30 41 1 52 53
M  V30 42 1 53 54
M  V30 43 1 55 56
M  V30 44 1 56 57
M  V30 45 1 58 59
M  V30 46 1 59 60
M  V30 47 1 61 62
M  V30 48 1 62 63
M  V30 49 1 64 65
M  V30 50 1 65 66
M  V30 51 1 67 68
M  V30 52 1 68 69
M  V30 53 1 70 71
M  V30 54 1 71 72
M  V30 55 1 73 74
M  V30 56 1 74 75
M  V30 57 1 76 77
M  V30 58 1 77 78
M  V30 59 1 79 80
M  V30 60 1 80 81
M  V30 61 1 82 83
M  V30 62 1 83 84
M  V30 63 1 85 86
M  V30 64 1 86 87
M  V30 65 1 88 89
M  V30 66 1 89 90
M  V30 67 1 91 92
M  V30 68 1 92 93
M  V30 69 1 94 95
M  V30 70 1 95 96
M  V30 71 1 97 98
M  V30 72 1 98 99
M  V30 73 1 2 49
M  V30 74 1 3 67
M  V30 75 1 4 91
M  V30 76 1 5 88
M  V30 77 1 7 51
M  V30 78 1 8 52
M  V30 79 1 9 90
M  V30 80 1 10 76
M  V30 81 1 12 46
M  V30 82 1 13 61
M  V30 83 1 14 64
M  V30 84 1 15 79
M  V30 85 1 17 81
M  V30 86 1 18 63
M  V30 87 1 19 73
M  V30 88 1 20 66
M  V30 89 1 22 93
M  V30 90 1 23 58
M  V30 91 1 24 94
M  V30 92 1 25 97
M  V30 93 1 27 78
M  V30 94 1 28 54
M  V30 95 1 29 99
M  V30 96 1 30 96
M  V30 97 1 32 85
M  V30 98 1 33 48
M  V30 99 1 34 75
M  V30 100 1 35 70
M  V30 101 1 37 87
M  V30 102 1 38 69
M  V30 103 1 39 82
M  V30 104 1 40 55
M  V30 105 1 42 84
M  V30 106 1 43 57
M  V30 107 1 44 72
M  V30 108 1 45 60
M  V30 END BOND
M  V30 END CTAB
M  END

$$$$
