
     RDKit          3D

  0  0  0  0  0  0  0  0  0  0999 V3000
M  V30 BEGIN CTAB
M  V30 COUNTS 99 108 0 0 0
M  V30 BEGIN ATOM
M  V30 1 Pd 0.1285 1.2987 -3.5409 0
M  V30 2 Pb 0.9468 1.7955 -3.2475 0
M  V30 3 Pb -0.1018 2.0291 -4.1842 0
M  V30 4 Pb 0.3719 0.5885 -2.8787 0
M  V30 5 Pb -0.7125 0.8211 -3.7986 0
M  V30 6 Pd 0.4264 -4.4004 -2.0813 0
M  V30 7 Pb -0.5336 -4.2655 -1.8249 0
M  V30 8 Pb 0.2291 -5.3730 -2.1862 0
M  V30 9 Pb 0.6333 -3.4432 -1.8736 0
M  V30 10 Pb 1.3863 -4.5889 -2.3003 0
M  V30 11 Pd -1.2982 -6.5324 1.6870 0
M  V30 12 Pb -1.4731 -5.9290 2.4641 0
M  V30 13 Pb -1.1109 -7.0893 0.8788 0
M  V30 14 Pb -0.4635 -6.8709 2.1143 0
M  V30 15 Pb -2.0038 -6.0589 1.1638 0
M  V30 16 Pd 5.8431 0.7977 1.2811 0
M  V30 17 Pb 6.2265 0.2860 0.5158 0
M  V30 18 Pb 5.4582 1.3144 2.0469 0
M  V30 19 Pb 6.1546 0.0720 1.8973 0
M  V30 20 Pb 5.4674 1.4578 0.6300 0
M  V30 21 Pd -4.5104 0.0749 3.3716 0
M  V30 22 Pb -4.8068 -0.5357 2.6377 0
M  V30 23 Pb -4.1382 0.7324 4.0231 0
M  V30 24 Pb -3.9841 -0.6723 3.7764 0
M  V30 25 Pb -5.0459 0.8090 2.9586 0
M  V30 26 Pd 5.4243 -4.2038 0.3724 0
M  V30 27 Pb 5.8082 -3.7769 1.1944 0
M  V30 28 Pb 5.9071 -3.5280 -0.1795 0
M  V30 29 Pb 4.9407 -4.8807 0.9294 0
M  V30 30 Pb 5.0192 -4.5697 -0.4678 0
M  V30 31 Pd -1.6327 5.9312 -2.4725 0
M  V30 32 Pb -1.7643 6.2124 -1.5009 0
M  V30 33 Pb -2.5679 5.5826 -2.5450 0
M  V30 34 Pb -0.7139 6.3060 -2.4471 0
M  V30 35 Pb -1.4610 5.5935 -3.3961 0
M  V30 36 Pd -4.9430 1.3368 -1.6127 0
M  V30 37 Pb -4.9083 2.2418 -2.0385 0
M  V30 38 Pb -5.3916 1.7539 -0.8247 0
M  V30 39 Pb -4.4766 0.9115 -2.3909 0
M  V30 40 Pb -5.0294 0.4431 -1.1680 0
M  V30 41 Pd 0.4694 5.6481 3.0689 0
M  V30 42 Pb 1.2101 5.1939 3.5611 0
M  V30 43 Pb 1.1512 6.1029 2.5087 0
M  V30 44 Pb -0.2645 6.0276 2.4722 0
M  V30 45 Pb -0.2015 5.1827 3.6466 0
M  V30 46 Ag 5.1594 1.7133 2.6083 0
M  V30 47 Fe 3.5025 3.2607 3.3153 0
M  V30 48 Ag 1.7840 4.8096 3.8504 0
M  V30 49 Ag -1.6122 -5.4390 3.0137 0
M  V30 50 Fe -2.5879 -3.3556 3.6005 0
M  V30 51 Ag -3.6033 -1.2570 4.0502 0
M  V30 52 Ag -3.8232 1.2725 4.4334 0
M  V30 53 Fe -2.2677 3.0632 4.3417 0
M  V30 54 Ag -0.6862 4.8151 4.0857 0
M  V30 55 Ag 1.5540 2.1488 -2.9815 0
M  V30 56 Fe 3.3783 2.0959 -1.4599 0
M  V30 57 Ag 5.1509 1.8966 0.1098 0
M  V30 58 Ag -0.0387 6.5716 -2.3057 0
M  V30 59 Fe 1.2060 6.7197 -0.3148 0
M  V30 60 Ag 1.5755 6.4099 1.9877 0
M  V30 61 Ag 0.2310 -7.0242 2.3435 0
M  V30 62 Fe 2.4531 -6.2947 1.9372 0
M  V30 63 Ag 4.5620 -5.3794 1.3441 0
M  V30 64 Ba -1.8761 6.4378 -0.7734 0
M  V30 65 Ga -1.2917 6.3310 0.6025 0
M  V30 66 Ba -0.8227 6.3118 2.0259 0
M  V30 67 Ba 6.5025 -0.1196 -0.0478 0
M  V30 68 Ga 6.4082 -1.5555 -0.3508 0
M  V30 69 Ba 6.2613 -3.0015 -0.5739 0
M  V30 70 Ba -0.2829 2.5908 -4.6471 0
M  V30 71 Ga -0.7987 3.9496 -4.4029 0
M  V30 72 Ba -1.3123 5.2883 -4.0629 0
M  V30 73 Ba -1.3575 0.4895 -3.9936 0
M  V30 74 Ga -2.7406 0.5310 -3.4766 0
M  V30 75 Ba -4.1245 0.5711 -2.9616 0
M  V30 76 Ba 6.3603 -0.5158 2.3189 0
M  V30 77 Ga 6.2440 -1.9717 2.0888 0
M  V30 78 Ba 6.0932 -3.4115 1.7876 0
M  V30 79 Ba 2.0944 -4.7865 -2.4615 0
M  V30 80 Ga 3.4031 -4.7830 -1.7740 0
M  V30 81 Ba 4.7304 -4.7983 -1.1235 0
M  V30 82 Ba -3.2687 5.3419 -2.6663 0
M  V30 83 Ga -4.0688 4.1163 -2.4747 0
M  V30 84 Ba -4.9419 2.9357 -2.3234 0
M  V30 85 Ba 0.0690 -6.1031 -2.1677 0
M  V30 86 Ga -0.4493 -6.8599 -1.0167 0
M  V30 87 Ba -0.9644 -7.4407 0.2339 0
M  V30 88 Ba -1.2520 -4.2315 -1.6021 0
M  V30 89 Ga -1.9225 -4.9003 -0.4695 0
M  V30 90 Ba -2.4224 -5.6406 0.7056 0
M  V30 91 Ba -5.4453 1.3471 2.6263 0
M  V30 92 Ga -5.6019 1.7295 1.2136 0
M  V30 93 Ba -5.7094 2.0545 -0.2180 0
M  V30 94 Ba 0.6028 0.1084 -2.3493 0
M  V30 95 Ga 0.6654 -1.3382 -2.0615 0
M  V30 96 Ba 0.7962 -2.7476 -1.6420 0
M  V30 97 Ba -4.9866 -0.9545 2.0423 0
M  V30 98 Ga -5.0660 -0.6159 0.6073 0
M  V30 99 Ba -5.1274 -0.2119 -0.8116 0
M  V30 END ATOM
M  V30 BEGIN BOND
M  V30 1 1 1 2
M  V30 2 1 1 3
M  V30 3 1 1 4
M  V30 4 1 1 5
M  V30 5 1 6 7
M  V30 6 1 6 8
M  V30 7 1 6 9
M  V30 8 1 6 10
M  V30 9 1 11 12
M  V30 10 1 11 13
M  V30 11 1 11 14
M  V30 12 1 11 15
M  V30 13 1 16 17
M  V30 14 1 16 18
M  V30 15 1 16 19
M  V30 16 1 16 20
M  V30 17 1 21 22
M  V30 18 1 21 23
M  V30 19 1 21 24
M  V30 20 1 21 25
M  V30 21 1 26 27
M  V30 22 1 26 28
M  V30 23 1 26 29
M  V30 24 1 26 30
M  V30 25 1 31 32
M  V30 26 1 31 33
M  V30 27 1 31 34
M  V30 28 1 31 35
M  V30 29 1 36 37
M  V30 30 1 36 38
M  V30 31 1 36 39
M  V30 32 1 36 40
M  V30 33 1 41 42
M  V30 34 1 41 43
M  V30 35 1 41 44
M  V30 36 1 41 45
M  V30 37 1 46 47
M  V30 38 1 47 48
M  V30 39 1 49 50
M  V30 40 1 50 51
M  V30 41 1 52 53
M  V30 42 1 53 54
M  V30 43 1 55 56
M  V30 44 1 56 57
M  V30 45 1 58 59
M  V30 46 1 59 60
M  V30 47 1 61 62
M  V30 48 1 62 63
M  V30 49 1 64 65
M  V30 50 1 65 66
M  V30 51 1 67 68
M  V30 52 1 68 69
M  V30 53 1 70 71
M  V30 54 1 71 72
M  V30 55 1 73 74
M  V30 56 1 74 75
M  V30 57 1 76 77
M  V30 58 1 77 78
M  V30 59 1 79 80
M  V30 60 1 80 81
M  V30 61 1 82 83
M  V30 62 1 83 84
M  V30 63 1 85 86
M  V30 64 1 86 87
M  V30 65 1 88 89
M  V30 66 1 89 90
M  V30 67 1 91 92
M  V30 68 1 92 93
M  V30 69 1 94 95
M  V30 70 1 95 96
M  V30 71 1 97 98
M  V30 72 1 98 99
M  V30 73 1 2 55
M  V30 74 1 3 70
M  V30 75 1 4 94
M  V30 76 1 5 73
M  V30 77 1 7 88
M  V30 78 1 8 85
M  V30 79 1 9 96
M  V30 80 1 10 79
M  V30 81 1 12 49
M  V30 82 1 13 87
M  V30 83 1 14 61
M  V30 84 1 15 90
M  V30 85 1 17 67
M  V30 86 1 18 46
M  V30 87 1 19 76
M  V30 88 1 20 57
M  V30 89 1 22 97
M  V30 90 1 23 52
M  V30 91 1 24 51
M  V30 92 1 25 91
M  V30 93 1 27 78
M  V30 94 1 28 69
M  V30 95 1 29 63
M  V30 96 1 30 81
M  V30 97 1 32 64
M  V30 98 1 33 82
M  V30 99 1 34 58
M  V30 100 1 35 72
M  V30 101 1 37 84
M  V30 102 1 38 93
M  V30 103 1 39 75
M  V30 104 1 40 99
M  V30 105 1 42 48
M  V30 106 1 43 60
M  V30 107 1 44 66
M  V30 108 1 45 54
M  V30 END BOND
M  V30 END CTAB
M  END

$$$$
