
     RDKit          3D

  0  0  0  0  0  0  0  0  0  0999 V3000
M  V30 BEGIN CTAB
M  V30 COUNTS 99 108 0 0 0
M  V30 BEGIN ATOM
M  V30 1 Pd -0.1273 -6.0521 1.1933 0
M  V30 2 Pb -1.0554 -5.7199 1.3750 0
M  V30 3 Pb -0.1673 -6.7537 1.9078 0
M  V30 4 Pb 0.8133 -6.3496 1.0384 0
M  V30 5 Pb 0.0052 -5.3086 0.5449 0
M  V30 6 Pd 4.6956 -6.8081 5.8743 0
M  V30 7 Pb 5.2084 -5.9501 5.8221 0
M  V30 8 Pb 4.9346 -7.0325 4.9338 0
M  V30 9 Pb 3.9851 -7.5095 5.8163 0
M  V30 10 Pb 4.3231 -6.4841 6.7386 0
M  V30 11 Pd -1.7467 6.1123 0.4013 0
M  V30 12 Pb -2.6695 5.7589 0.2401 0
M  V30 13 Pb -0.7795 6.3283 0.5234 0
M  V30 14 Pb -1.8186 6.6814 -0.4139 0
M  V30 15 Pb -1.6743 5.5111 1.1911 0
M  V30 16 Pd -2.8155 5.1435 -6.8687 0
M  V30 17 Pb -1.9024 5.3375 -7.2374 0
M  V30 18 Pb -3.6480 4.8188 -6.4148 0
M  V30 19 Pb -2.8581 4.3843 -7.5104 0
M  V30 20 Pb -2.7286 5.8865 -6.2093 0
M  V30 21 Pd -2.4285 -1.1593 2.5387 0
M  V30 22 Pb -2.1919 -0.9376 1.5906 0
M  V30 23 Pb -2.5808 -1.3249 3.5105 0
M  V30 24 Pb -2.1868 -0.2266 2.7920 0
M  V30 25 Pb -2.6882 -2.1024 2.3074 0
M  V30 26 Pd 1.3159 -0.8716 5.9035 0
M  V30 27 Pb 2.3004 -0.9562 5.7322 0
M  V30 28 Pb 1.1762 -0.2135 5.1573 0
M  V30 29 Pb 1.4521 -1.5258 6.6450 0
M  V30 30 Pb 0.3279 -0.9064 6.0646 0
M  V30 31 Pd -3.5087 1.8533 -2.5313 0
M  V30 32 Pb -2.9538 1.3608 -1.8543 0
M  V30 33 Pb -3.1277 1.1715 -3.1611 0
M  V30 34 Pb -3.8693 2.5248 -1.8745 0
M  V30 35 Pb -4.0534 2.3160 -3.2420 0
M  V30 36 Pd 2.7536 1.1202 0.5072 0
M  V30 37 Pb 3.2926 1.0990 -0.3360 0
M  V30 38 Pb 3.0214 2.0669 0.6813 0
M  V30 39 Pb 2.3708 0.2382 0.2383 0
M  V30 40 Pb 2.1749 1.1615 1.3279 0
M  V30 41 Pd 2.0300 0.5752 -7.0122 0
M  V30 42 Pb 1.3055 0.5688 -7.6942 0
M  V30 43 Pb 2.3113 1.4603 -7.3820 0
M  V30 44 Pb 1.5188 -0.1436 -6.5483 0
M  V30 45 Pb 2.7102 0.6212 -6.2789 0
M  V30 46 Ag -1.9001 7.0581 -1.0533 0
M  V30 47 Fe -2.2680 6.8433 -3.3857 0
M  V30 48 Ag -2.6381 6.4136 -5.6878 0
M  V30 49 Ag 3.6570 1.0616 -0.9917 0
M  V30 50 Fe 3.4842 0.8697 -3.3540 0
M  V30 51 Ag 3.1910 0.6754 -5.7042 0
M  V30 52 Ag 3.9735 -6.1199 7.2859 0
M  V30 53 Fe 2.7416 -4.1038 7.4617 0
M  V30 54 Ag 1.6091 -2.0441 7.1606 0
M  V30 55 Ag -0.0541 -7.2528 2.4595 0
M  V30 56 Fe 1.5456 -7.7694 4.1408 0
M  V30 57 Ag 3.3670 -7.9072 5.6626 0
M  V30 58 Ag -2.7683 0.6213 -3.5312 0
M  V30 59 Fe -0.9261 -0.0844 -4.8582 0
M  V30 60 Ag 0.9795 -0.5338 -6.2064 0
M  V30 61 Ag -2.7660 3.7987 -7.9594 0
M  V30 62 Fe -1.1630 2.0877 -8.2721 0
M  V30 63 Ag 0.7045 0.6436 -8.1259 0
M  V30 64 Ag 1.5277 -6.5696 1.0110 0
M  V30 65 Fe 3.3992 -6.9357 2.4187 0
M  V30 66 Ag 4.9504 -7.1485 4.1977 0
M  V30 67 Ag 0.1608 -4.7249 0.1080 0
M  V30 68 Fe 1.1024 -2.5488 0.0350 0
M  V30 69 Ag 2.0461 -0.3739 -0.0460 0
M  V30 70 Ag 5.4267 -5.2338 5.7541 0
M  V30 71 Fe 4.4114 -3.0840 5.6780 0
M  V30 72 Ag 3.0243 -1.1515 5.6579 0
M  V30 73 Ag -1.6144 5.0267 1.7542 0
M  V30 74 Fe -1.8038 2.7617 2.4250 0
M  V30 75 Ag -2.0213 0.4720 2.9960 0
M  V30 76 Ag -1.1882 5.3535 -7.4785 0
M  V30 77 Fe 0.7128 3.9335 -7.6478 0
M  V30 78 Ag 2.3144 2.1755 -7.6107 0
M  V30 79 Ag -0.0386 6.3329 0.6262 0
M  V30 80 Fe 1.7152 4.7393 0.7427 0
M  V30 81 Ag 3.0917 2.8069 0.7708 0
M  V30 82 Ba -2.6210 -1.3682 4.2562 0
M  V30 83 Ga -1.5479 -1.1930 5.2531 0
M  V30 84 Ba -0.4099 -1.0033 6.1725 0
M  V30 85 Ba -3.3339 5.4283 0.1198 0
M  V30 86 Ga -3.7482 4.2351 -0.6531 0
M  V30 87 Ba -4.1784 3.0434 -1.4193 0
M  V30 88 Ba 1.0135 0.2959 4.6251 0
M  V30 89 Ga 1.4235 0.7206 3.2672 0
M  V30 90 Ba 1.7169 1.2598 1.9198 0
M  V30 91 Ba -1.9297 -0.7278 0.9176 0
M  V30 92 Ga -2.2911 0.1180 -0.2414 0
M  V30 93 Ba -2.4783 0.9143 -1.4740 0
M  V30 94 Ba -1.7459 -5.4449 1.4935 0
M  V30 95 Ga -2.3082 -4.1170 1.8277 0
M  V30 96 Ba -2.9137 -2.8079 2.1604 0
M  V30 97 Ba -4.2346 4.5183 -6.0508 0
M  V30 98 Ga -4.3516 3.5980 -4.8943 0
M  V30 99 Ba -4.4946 2.6773 -3.7412 0
M  V30 END ATOM
M  V30 BEGIN BOND
M  V30 1 1 1 2
M  V30 2 1 1 3
M  V30 3 1 1 4
M  V30 4 1 1 5
M  V30 5 1 6 7
M  V30 6 1 6 8
M  V30 7 1 6 9
M  V30 8 1 6 10
M  V30 9 1 11 12
M  V30 10 1 11 13
M  V30 11 1 11 14
M  V30 12 1 11 15
M  V30 13 1 16 17
M  V30 14 1 16 18
M  V30 15 1 16 19
M  V30 16 1 16 20
M  V30 17 1 21 22
M  V30 18 1 21 23
M  V30 19 1 21 24
M  V30 20 1 21 25
M  V30 21 1 26 27
M  V30 22 1 26 28
M  V30 23 1 26 29
M  V30 24 1 26 30
M  V30 25 1 31 32
M  V30 26 1 31 33
M  V30 27 1 31 34
M  V30 28 1 31 35
M  V30 29 1 36 37
M  V30 30 1 36 38
M  V30 31 1 36 39
M  V30 32 1 36 40
M  V30 33 1 41 42
M  V30 34 1 41 43
M  V30 35 1 41 44
M  V30 36 1 41 45
M  V30 37 1 46 47
M  V30 38 1 47 48
M  V30 39 1 49 50
M  V30 40 1 50 51
M  V30 41 1 52 53
M  V30 42 1 53 54
M  V30 43 1 55 56
M  V30 44 1 56 57
M  V30 45 1 58 59
M  V30 46 1 59 60
M  V30 47 1 61 62
M  V30 48 1 62 63
M  V30 49 1 64 65
M  V30 50 1 65 66
M  V30 51 1 67 68
M  V30 52 1 68 69
M  V30 53 1 70 71
M  V30 54 1 71 72
M  V30 55 1 73 74
M  V30 56 1 74 75
M  V30 57 1 76 77
M  V30 58 1 77 78
M  V30 59 1 79 80
M  V30 60 1 80 81
M  V30 61 1 82 83
M  V30 62 1 83 84
M  V30 63 1 85 86
M  V30 64 1 86 87
M  V30 65 1 88 89
M  V30 66 1 89 90
M  V30 67 1 91 92
M  V30 68 1 92 93
M  V30 69 1 94 95
M  V30 70 1 95 96
M  V30 71 1 97 98
M  V30 72 1 98 99
M  V30 73 1 2 94
M  V30 74 1 3 55
M  V30 75 1 4 64
M  V30 76 1 5 67
M  V30 77 1 7 70
M  V30 78 1 8 66
M  V30 79 1 9 57
M  V30 80 1 10 52
M  V30 81 1 12 85
M  V30 82 1 13 79
M  V30 83 1 14 46
M  V30 84 1 15 73
M  V30 85 1 17 76
M  V30 86 1 18 97
M  V30 87 1 19 61
M  V30 88 1 20 48
M  V30 89 1 22 91
M  V30 90 1 23 82
M  V30 91 1 24 75
M  V30 92 1 25 96
M  V30 93 1 27 72
M  V30 94 1 28 88
M  V30 95 1 29 54
M  V30 96 1 30 84
M  V30 97 1 32 93
M  V30 98 1 33 58
M  V30 99 1 34 87
M  V30 100 1 35 99
M  V30 101 1 37 49
M  V30 102 1 38 81
M  V30 103 1 39 69
M  V30 104 1 40 90
M  V30 105 1 42 63
M  V30 106 1 43 78
M  V30 107 1 44 60
M  V30 108 1 45 51
M  V30 END BOND
M  V30 END CTAB
M  END

$$$$
