
     RDKit          3D

  0  0  0  0  0  0  0  0  0  0999 V3000
M  V30 BEGIN CTAB
M  V30 COUNTS 99 108 0 0 0
M  V30 BEGIN ATOM
M  V30 1 Pd 1.5980 -0.3852 4.0428 0
M  V30 2 Pb 2.4472 0.0012 3.6673 0
M  V30 3 Pb 2.0785 -1.2379 4.2630 0
M  V30 4 Pb 1.1221 0.4795 3.8817 0
M  V30 5 Pb 0.7606 -0.7567 4.4488 0
M  V30 6 Pd -3.3824 1.8793 2.2154 0
M  V30 7 Pb -4.2428 1.8132 1.7166 0
M  V30 8 Pb -3.0227 1.1407 1.6455 0
M  V30 9 Pb -2.4894 2.0375 2.6412 0
M  V30 10 Pb -3.7317 2.7191 2.6230 0
M  V30 11 Pd -3.4157 2.5931 -2.6090 0
M  V30 12 Pb -2.6102 2.6009 -3.2034 0
M  V30 13 Pb -3.0902 1.7495 -2.1712 0
M  V30 14 Pb -3.7158 3.4767 -2.9793 0
M  V30 15 Pb -4.2360 2.5312 -2.0415 0
M  V30 16 Pd 3.7101 3.1107 0.0255 0
M  V30 17 Pb 3.2708 3.7827 0.6211 0
M  V30 18 Pb 4.1349 2.4769 -0.6194 0
M  V30 19 Pb 3.3949 3.6685 -0.7430 0
M  V30 20 Pb 3.9934 2.5404 0.8023 0
M  V30 21 Pd -0.8225 -1.4524 -4.0974 0
M  V30 22 Pb -1.0423 -2.3611 -3.7503 0
M  V30 23 Pb -0.1760 -1.8623 -4.7392 0
M  V30 24 Pb -0.6210 -0.5224 -4.4039 0
M  V30 25 Pb -1.4204 -1.0859 -3.3846 0
M  V30 26 Pd -1.9923 7.2692 -1.1138 0
M  V30 27 Pb -1.2431 7.0929 -1.7494 0
M  V30 28 Pb -1.3079 7.2913 -0.3854 0
M  V30 29 Pb -2.6674 7.0927 -1.8321 0
M  V30 30 Pb -2.6982 7.3300 -0.4116 0
M  V30 31 Pd 2.6822 -5.4303 1.9438 0
M  V30 32 Pb 3.5098 -5.0436 1.5480 0
M  V30 33 Pb 1.8774 -5.8434 2.3718 0
M  V30 34 Pb 2.4835 -5.8658 1.0595 0
M  V30 35 Pb 2.8754 -4.9462 2.7978 0
M  V30 36 Pd -2.2154 -3.8086 2.5103 0
M  V30 37 Pb -1.8204 -4.6253 2.9240 0
M  V30 38 Pb -2.5470 -2.9938 2.0354 0
M  V30 39 Pb -2.1168 -3.3008 3.3647 0
M  V30 40 Pb -2.2430 -4.2786 1.6313 0
M  V30 41 Pd 3.7314 -3.8167 -2.9386 0
M  V30 42 Pb 4.1647 -2.9383 -3.1237 0
M  V30 43 Pb 3.2683 -4.6630 -2.6617 0
M  V30 44 Pb 4.2959 -3.8774 -2.1202 0
M  V30 45 Pb 3.1897 -3.7310 -3.7781 0
M  V30 46 Ag 2.9052 4.3372 0.9692 0
M  V30 47 Fe 1.0879 5.8416 0.6978 0
M  V30 48 Ag -0.7817 7.1956 0.1402 0
M  V30 49 Ag 4.4294 2.0238 -1.1383 0
M  V30 50 Fe 4.5015 -0.0960 -2.2017 0
M  V30 51 Ag 4.4753 -2.2609 -3.1722 0
M  V30 52 Ag 3.1085 4.1034 -1.2832 0
M  V30 53 Fe 1.2962 5.5262 -1.8560 0
M  V30 54 Ag -0.6331 6.8825 -2.1281 0
M  V30 55 Ag -3.9750 3.4116 2.7550 0
M  V30 56 Fe -3.7464 5.4999 1.6599 0
M  V30 57 Ag -3.1474 7.2497 0.1794 0
M  V30 58 Ag -1.8334 -0.8818 -2.7929 0
M  V30 59 Fe -2.3881 -1.5233 -0.5749 0
M  V30 60 Ag -2.7436 -2.4200 1.5950 0
M  V30 61 Ag -1.2320 -3.0025 -3.4177 0
M  V30 62 Fe -1.7529 -3.9374 -1.3022 0
M  V30 63 Ag -2.2175 -4.5564 0.9386 0
M  V30 64 Ba 4.1307 -4.7682 1.2406 0
M  V30 65 Ga 4.4515 -4.3308 -0.1243 0
M  V30 66 Ba 4.7172 -3.9066 -1.5051 0
M  V30 67 Ba 2.4394 -1.8649 4.4721 0
M  V30 68 Ga 2.7202 -3.2108 3.9310 0
M  V30 69 Ba 3.0238 -4.5665 3.4279 0
M  V30 70 Ba -2.0149 2.5608 -3.6595 0
M  V30 71 Ga -1.2316 1.4098 -4.1489 0
M  V30 72 Ba -0.5103 0.1975 -4.5822 0
M  V30 73 Ba 0.1352 -1.0242 4.7699 0
M  V30 74 Ga -0.9387 -1.9618 4.3880 0
M  V30 75 Ba -2.0036 -2.9022 3.9886 0
M  V30 76 Ba 1.2891 -6.1439 2.7288 0
M  V30 77 Ga -0.1012 -5.7193 2.9705 0
M  V30 78 Ba -1.4798 -5.2408 3.1757 0
M  V30 79 Ba -2.7861 0.6577 1.1218 0
M  V30 80 Ga -2.7924 0.8399 -0.3464 0
M  V30 81 Ba -2.8510 1.1412 -1.7939 0
M  V30 82 Ba 0.3241 -2.2231 -5.1648 0
M  V30 83 Ga 1.5713 -2.9316 -4.8137 0
M  V30 84 Ba 2.8117 -3.6307 -4.4216 0
M  V30 85 Ba -4.8495 1.8339 1.2818 0
M  V30 86 Ga -4.9152 2.1240 -0.1596 0
M  V30 87 Ba -4.8306 2.4255 -1.5978 0
M  V30 88 Ba 3.1046 0.2815 3.4224 0
M  V30 89 Ga 3.6195 1.2015 2.3820 0
M  V30 90 Ba 4.2217 2.1054 1.3747 0
M  V30 91 Ba 2.3496 -6.1649 0.3784 0
M  V30 92 Ga 2.6309 -5.7379 -1.0130 0
M  V30 93 Ba 2.9285 -5.2794 -2.3909 0
M  V30 94 Ba 0.7731 1.1388 3.8043 0
M  V30 95 Ga -0.5418 1.6365 3.3536 0
M  V30 96 Ba -1.8224 2.2347 2.9271 0
M  V30 97 Ba -3.9271 4.1582 -3.2235 0
M  V30 98 Ga -3.5637 5.5348 -2.8205 0
M  V30 99 Ba -3.1533 6.8816 -2.3656 0
M  V30 END ATOM
M  V30 BEGIN BOND
M  V30 1 1 1 2
M  V30 2 1 1 3
M  V30 3 1 1 4
M  V30 4 1 1 5
M  V30 5 1 6 7
M  V30 6 1 6 8
M  V30 7 1 6 9
M  V30 8 1 6 10
M  V30 9 1 11 12
M  V30 10 1 11 13
M  V30 11 1 11 14
M  V30 12 1 11 15
M  V30 13 1 16 17
M  V30 14 1 16 18
M  V30 15 1 16 19
M  V30 16 1 16 20
M  V30 17 1 21 22
M  V30 18 1 21 23
M  V30 19 1 21 24
M  V30 20 1 21 25
M  V30 21 1 26 27
M  V30 22 1 26 28
M  V30 23 1 26 29
M  V30 24 1 26 30
M  V30 25 1 31 32
M  V30 26 1 31 33
M  V30 27 1 31 34
M  V30 28 1 31 35
M  V30 29 1 36 37
M  V30 30 1 36 38
M  V30 31 1 36 39
M  V30 32 1 36 40
M  V30 33 1 41 42
M  V30 34 1 41 43
M  V30 35 1 41 44
M  V30 36 1 41 45
M  V30 37 1 46 47
M  V30 38 1 47 48
M  V30 39 1 49 50
M  V30 40 1 50 51
M  V30 41 1 52 53
M  V30 42 1 53 54
M  V30 43 1 55 56
M  V30 44 1 56 57
M  V30 45 1 58 59
M  V30 46 1 59 60
M  V30 47 1 61 62
M  V30 48 1 62 63
M  V30 49 1 64 65
M  V30 50 1 65 66
M  V30 51 1 67 68
M  V30 52 1 68 69
M  V30 53 1 70 71
M  V30 54 1 71 72
M  V30 55 1 73 74
M  V30 56 1 74 75
M  V30 57 1 76 77
M  V30 58 1 77 78
M  V30 59 1 79 80
M  V30 60 1 80 81
M  V30 61 1 82 83
M  V30 62 1 83 84
M  V30 63 1 85 86
M  V30 64 1 86 87
M  V30 65 1 88 89
M  V30 66 1 89 90
M  V30 67 1 91 92
M  V30 68 1 92 93
M  V30 69 1 94 95
M  V30 70 1 95 96
M  V30 71 1 97 98
M  V30 72 1 98 99
M  V30 73 1 2 88
M  V30 74 1 3 67
M  V30 75 1 4 94
M  V30 76 1 5 73
M  V30 77 1 7 85
M  V30 78 1 8 79
M  V30 79 1 9 96
M  V30 80 1 10 55
M  V30 81 1 12 70
M  V30 82 1 13 81
M  V30 83 1 14 97
M  V30 84 1 15 87
M  V30 85 1 17 46
M  V30 86 1 18 49
M  V30 87 1 19 52
M  V30 88 1 20 90
M  V30 89 1 22 61
M  V30 90 1 23 82
M  V30 91 1 24 72
M  V30 92 1 25 58
M  V30 93 1 27 54
M  V30 94 1 28 48
M  V30 95 1 29 99
M  V30 96 1 30 57
M  V30 97 1 32 64
M  V30 98 1 33 76
M  V30 99 1 34 91
M  V30 100 1 35 69
M  V30 101 1 37 78
M  V30 102 1 38 60
M  V30 103 1 39 75
M  V30 104 1 40 63
M  V30 105 1 42 51
M  V30 106 1 43 93
M  V30 107 1 44 66
M  V30 108 1 45 84
M  V30 END BOND
M  V30 END CTAB
M  END

$$$$
