
     RDKit          3D

  0  0  0  0  0  0  0  0  0  0999 V3000
M  V30 BEGIN CTAB
M  V30 COUNTS 99 108 0 0 0
M  V30 BEGIN ATOM
M  V30 1 Pd -1.3011 3.1442 -3.9254 0
M  V30 2 Pb -2.1949 3.5824 -3.9828 0
M  V30 3 Pb -1.1473 3.2611 -4.9051 0
M  V30 4 Pb -0.3967 2.7173 -3.8643 0
M  V30 5 Pb -1.5182 2.9372 -2.9703 0
M  V30 6 Pd 0.3224 -0.5986 -6.6995 0
M  V30 7 Pb 0.5815 -1.4874 -6.3226 0
M  V30 8 Pb 0.9599 -0.1323 -6.0895 0
M  V30 9 Pb 0.0543 0.2959 -7.0592 0
M  V30 10 Pb -0.4195 -1.0542 -7.1898 0
M  V30 11 Pd 0.0687 3.6245 2.3705 0
M  V30 12 Pb -0.2581 3.6941 3.3157 0
M  V30 13 Pb 0.4134 3.5147 1.4378 0
M  V30 14 Pb 0.9881 3.3509 2.6653 0
M  V30 15 Pb -0.8195 3.9808 2.0586 0
M  V30 16 Pd 6.0508 -0.6083 5.3696 0
M  V30 17 Pb 6.3110 -1.3981 5.9184 0
M  V30 18 Pb 5.5373 -0.2527 6.1442 0
M  V30 19 Pb 6.3735 -1.0897 4.5384 0
M  V30 20 Pb 5.7257 0.1709 4.8320 0
M  V30 21 Pd -4.9028 2.6570 -0.4021 0
M  V30 22 Pb -4.9137 2.0857 0.4150 0
M  V30 23 Pb -5.3239 1.9119 -0.9187 0
M  V30 24 Pb -4.4216 3.3760 0.1049 0
M  V30 25 Pb -4.9101 3.2227 -1.2262 0
M  V30 26 Pd -2.7321 -3.3391 -4.1174 0
M  V30 27 Pb -1.8197 -3.6866 -4.3230 0
M  V30 28 Pb -2.5727 -3.4788 -3.1389 0
M  V30 29 Pb -2.8549 -3.1650 -5.0970 0
M  V30 30 Pb -3.6074 -2.9085 -3.9018 0
M  V30 31 Pd -1.1770 -0.0738 5.7546 0
M  V30 32 Pb -2.0198 -0.0702 5.2224 0
M  V30 33 Pb -1.0410 -1.0306 5.4851 0
M  V30 34 Pb -1.2704 0.9090 5.9109 0
M  V30 35 Pb -0.3386 -0.0443 6.2985 0
M  V30 36 Pd 0.1477 -0.5985 -0.5876 0
M  V30 37 Pb 0.9543 -1.1765 -0.7091 0
M  V30 38 Pb 0.6772 0.2389 -0.7181 0
M  V30 39 Pb -0.6321 0.0121 -0.4777 0
M  V30 40 Pb -0.4227 -1.4160 -0.4927 0
M  V30 41 Pd 3.6219 -4.2615 2.1918 0
M  V30 42 Pb 4.5595 -3.8803 2.1585 0
M  V30 43 Pb 3.8812 -4.7902 2.9950 0
M  V30 44 Pb 2.6627 -4.4545 2.3941 0
M  V30 45 Pb 3.4005 -3.7885 1.3365 0
M  V30 46 Ag 1.7124 3.1985 2.8083 0
M  V30 47 Fe 3.5472 1.9441 3.6536 0
M  V30 48 Ag 5.4454 0.7630 4.4641 0
M  V30 49 Ag -0.9503 -1.7189 5.1914 0
M  V30 50 Fe 0.4245 -3.1955 3.9328 0
M  V30 51 Ag 1.9682 -4.4947 2.6750 0
M  V30 52 Ag -5.5878 1.3320 -1.3136 0
M  V30 53 Fe -5.0125 -0.6228 -2.5320 0
M  V30 54 Ag -4.2232 -2.5307 -3.7039 0
M  V30 55 Ag -4.9234 1.6525 1.0237 0
M  V30 56 Fe -3.8067 0.7850 2.9273 0
M  V30 57 Ag -2.6471 -0.0546 4.8177 0
M  V30 58 Ag 6.3678 -2.0759 6.2105 0
M  V30 59 Fe 5.4108 -4.0304 5.3192 0
M  V30 60 Ag 4.1638 -5.0741 3.6192 0
M  V30 61 Ag 5.0226 -0.0667 6.6502 0
M  V30 62 Fe 2.6577 0.0344 6.8069 0
M  V30 63 Ag 0.2874 0.0466 6.7017 0
M  V30 64 Ba 1.5601 -1.6040 -0.8204 0
M  V30 65 Ga 2.3996 -2.5302 -0.0349 0
M  V30 66 Ba 3.2984 -3.4708 0.6625 0
M  V30 67 Ba -1.0178 -1.4176 -7.4577 0
M  V30 68 Ga -1.9917 -2.2342 -6.7058 0
M  V30 69 Ba -2.8875 -3.0217 -5.8350 0
M  V30 70 Ba -1.0330 3.2641 -5.6450 0
M  V30 71 Ga -0.5857 2.1631 -6.5176 0
M  V30 72 Ba -0.1318 0.9877 -7.2834 0
M  V30 73 Ba 6.5639 -1.4952 3.9187 0
M  V30 74 Ga 5.8964 -2.5173 3.0559 0
M  V30 75 Ba 5.2435 -3.5405 2.1832 0
M  V30 76 Ba 0.2871 2.4042 -3.8698 0
M  V30 77 Ga 0.8760 1.3327 -4.6958 0
M  V30 78 Ba 1.3503 0.2495 -5.5779 0
M  V30 79 Ba -1.7566 2.7507 -2.2824 0
M  V30 80 Ga -1.4746 1.6577 -1.3340 0
M  V30 81 Ba -1.1504 0.5470 -0.4206 0
M  V30 82 Ba 0.7260 -2.1641 -6.0346 0
M  V30 83 Ga -0.1406 -3.0711 -5.2635 0
M  V30 84 Ba -1.1178 -3.8690 -4.5043 0
M  V30 85 Ba -0.5228 3.7309 4.0192 0
M  V30 86 Ga -0.9189 2.7173 5.0177 0
M  V30 87 Ba -1.2976 1.6558 5.9720 0
M  V30 88 Ba -2.4430 -3.5620 -2.4037 0
M  V30 89 Ga -1.6510 -2.8055 -1.4130 0
M  V30 90 Ba -0.8514 -2.0310 -0.4426 0
M  V30 91 Ba -1.4693 4.3171 1.8666 0
M  V30 92 Ga -2.7467 4.0638 1.1615 0
M  V30 93 Ba -4.0532 3.9146 0.4800 0
M  V30 94 Ba -2.8710 3.8990 -3.9602 0
M  V30 95 Ga -3.9223 3.7944 -2.9350 0
M  V30 96 Ba -4.9116 3.6267 -1.8575 0
M  V30 97 Ba 0.7401 3.3832 0.7747 0
M  V30 98 Ga 0.8845 2.1661 -0.0473 0
M  V30 99 Ba 0.9873 0.9137 -0.8210 0
M  V30 END ATOM
M  V30 BEGIN BOND
M  V30 1 1 1 2
M  V30 2 1 1 3
M  V30 3 1 1 4
M  V30 4 1 1 5
M  V30 5 1 6 7
M  V30 6 1 6 8
M  V30 7 1 6 9
M  V30 8 1 6 10
M  V30 9 1 11 12
M  V30 10 1 11 13
M  V30 11 1 11 14
M  V30 12 1 11 15
M  V30 13 1 16 17
M  V30 14 1 16 18
M  V30 15 1 16 19
M  V30 16 1 16 20
M  V30 17 1 21 22
M  V30 18 1 21 23
M  V30 19 1 21 24
M  V30 20 1 21 25
M  V30 21 1 26 27
M  V30 22 1 26 28
M  V30 23 1 26 29
M  V30 24 1 26 30
M  V30 25 1 31 32
M  V30 26 1 31 33
M  V30 27 1 31 34
M  V30 28 1 31 35
M  V30 29 1 36 37
M  V30 30 1 36 38
M  V30 31 1 36 39
M  V30 32 1 36 40
M  V30 33 1 41 42
M  V30 34 1 41 43
M  V30 35 1 41 44
M  V30 36 1 41 45
M  V30 37 1 46 47
M  V30 38 1 47 48
M  V30 39 1 49 50
M  V30 40 1 50 51
M  V30 41 1 52 53
M  V30 42 1 53 54
M  V30 43 1 55 56
M  V30 44 1 56 57
M  V30 45 1 58 59
M  V30 46 1 59 60
M  V30 47 1 61 62
M  V30 48 1 62 63
M  V30 49 1 64 65
M  V30 50 1 65 66
M  V30 51 1 67 68
M  V30 52 1 68 69
M  V30 53 1 70 71
M  V30 54 1 71 72
M  V30 55 1 73 74
M  V30 56 1 74 75
M  V30 57 1 76 77
M  V30 58 1 77 78
M  V30 59 1 79 80
M  V30 60 1 80 81
M  V30 61 1 82 83
M  V30 62 1 83 84
M  V30 63 1 85 86
M  V30 64 1 86 87
M  V30 65 1 88 89
M  V30 66 1 89 90
M  V30 67 1 91 92
M  V30 68 1 92 93
M  V30 69 1 94 95
M  V30 70 1 95 96
M  V30 71 1 97 98
M  V30 72 1 98 99
M  V30 73 1 2 94
M  V30 74 1 3 70
M  V30 75 1 4 76
M  V30 76 1 5 79
M  V30 77 1 7 82
M  V30 78 1 8 78
M  V30 79 1 9 72
M  V30 80 1 10 67
M  V30 81 1 12 85
M  V30 82 1 13 97
M  V30 83 1 14 46
M  V30 84 1 15 91
M  V30 85 1 17 58
M  V30 86 1 18 61
M  V30 87 1 19 73
M  V30 88 1 20 48
M  V30 89 1 22 55
M  V30 90 1 23 52
M  V30 91 1 24 93
M  V30 92 1 25 96
M  V30 93 1 27 84
M  V30 94 1 28 88
M  V30 95 1 29 69
M  V30 96 1 30 54
M  V30 97 1 32 57
M  V30 98 1 33 49
M  V30 99 1 34 87
M  V30 100 1 35 63
M  V30 101 1 37 64
M  V30 102 1 38 99
M  V30 103 1 39 81
M  V30 104 1 40 90
M  V30 105 1 42 75
M  V30 106 1 43 60
M  V30 107 1 44 51
M  V30 108 1 45 66
M  V30 END BOND
M  V30 END CTAB
M  END

$$$$
