
     RDKit          3D

  0  0  0  0  0  0  0  0  0  0999 V3000
M  V30 BEGIN CTAB
M  V30 COUNTS 99 108 0 0 0
M  V30 BEGIN ATOM
M  V30 1 Pd 3.8121 2.6683 0.5321 0
M  V30 2 Pb 2.9255 2.7463 0.9901 0
M  V30 3 Pb 4.7118 2.6283 0.0904 0
M  V30 4 Pb 4.0240 1.8063 0.9951 0
M  V30 5 Pb 3.5542 3.4995 0.0385 0
M  V30 6 Pd 2.3249 -2.1243 -7.0157 0
M  V30 7 Pb 1.3886 -2.4384 -6.8673 0
M  V30 8 Pb 3.2566 -1.7458 -7.1093 0
M  V30 9 Pb 1.9613 -1.3969 -7.5955 0
M  V30 10 Pb 2.6969 -2.7947 -6.3784 0
M  V30 11 Pd -5.9639 -0.1426 4.6120 0
M  V30 12 Pb -5.6650 0.8146 4.7585 0
M  V30 13 Pb -6.0441 0.0422 3.6307 0
M  V30 14 Pb -6.1964 -1.1079 4.4864 0
M  V30 15 Pb -5.9115 -0.2852 5.5963 0
M  V30 16 Pd -3.1441 -4.7295 3.3763 0
M  V30 17 Pb -4.0644 -4.4568 3.6677 0
M  V30 18 Pb -2.7856 -4.6655 4.3091 0
M  V30 19 Pb -3.4771 -4.7696 2.4356 0
M  V30 20 Pb -2.2358 -5.0195 3.0717 0
M  V30 21 Pd -4.1175 -0.7033 -3.0250 0
M  V30 22 Pb -3.6180 -1.1626 -3.7606 0
M  V30 23 Pb -4.6329 -0.2810 -2.2785 0
M  V30 24 Pb -4.2478 -1.5932 -2.5905 0
M  V30 25 Pb -3.9770 0.1988 -3.4415 0
M  V30 26 Pd 1.6243 -3.2854 4.9035 0
M  V30 27 Pb 0.8478 -3.5969 5.4551 0
M  V30 28 Pb 1.8248 -2.5557 5.5541 0
M  V30 29 Pb 2.3652 -2.9301 4.3342 0
M  V30 30 Pb 1.3894 -3.9746 4.2201 0
M  V30 31 Pd -1.5113 2.9060 6.4493 0
M  V30 32 Pb -1.1473 3.0794 5.5336 0
M  V30 33 Pb -0.6192 2.5920 6.7620 0
M  V30 34 Pb -1.9026 2.6369 7.3244 0
M  V30 35 Pb -2.4451 3.0737 6.1001 0
M  V30 36 Pd 0.6071 4.7394 -5.7927 0
M  V30 37 Pb -0.3457 4.5388 -5.5576 0
M  V30 38 Pb 1.5799 4.8553 -5.9840 0
M  V30 39 Pb 0.5104 4.1902 -6.6202 0
M  V30 40 Pb 0.7803 5.1954 -4.9212 0
M  V30 41 Pd 6.4230 0.7871 -4.1075 0
M  V30 42 Pb 6.1829 0.3502 -4.9879 0
M  V30 43 Pb 6.6413 1.2280 -3.2349 0
M  V30 44 Pb 6.3009 1.6810 -4.5353 0
M  V30 45 Pb 6.4612 -0.1226 -3.7017 0
M  V30 46 Ag 0.6687 -2.6060 -6.7470 0
M  V30 47 Fe -1.3036 -2.0969 -5.5258 0
M  V30 48 Ag -3.2570 -1.5580 -4.2871 0
M  V30 49 Ag 2.2544 2.8833 1.2985 0
M  V30 50 Fe 0.7153 2.9991 3.1050 0
M  V30 51 Ag -0.9174 3.1606 4.8236 0
M  V30 52 Ag -3.8807 0.8895 -3.7270 0
M  V30 53 Fe -2.4786 2.6204 -4.5599 0
M  V30 54 Ag -1.0480 4.3296 -5.3890 0
M  V30 55 Ag -3.7231 -4.7713 1.7285 0
M  V30 56 Fe -4.0474 -3.5509 -0.2812 0
M  V30 57 Ag -4.3330 -2.2536 -2.2480 0
M  V30 58 Ag -5.7801 -0.2687 6.3270 0
M  V30 59 Fe -4.1633 0.8895 7.5927 0
M  V30 60 Ag -2.3031 2.3123 7.8568 0
M  V30 61 Ag 3.0829 -3.1507 -5.8514 0
M  V30 62 Fe 4.8121 -2.3872 -4.4349 0
M  V30 63 Ag 6.3463 -0.8366 -3.5287 0
M  V30 64 Ag 1.6776 -0.8117 -7.9661 0
M  V30 65 Fe 1.0363 1.4603 -7.7312 0
M  V30 66 Ag 0.4925 3.7049 -7.1887 0
M  V30 67 Ag 4.1863 1.1424 1.3070 0
M  V30 68 Fe 3.5662 -0.7434 2.6118 0
M  V30 69 Ag 2.9051 -2.6098 3.9244 0
M  V30 70 Ag 3.2726 4.0931 -0.3249 0
M  V30 71 Fe 2.1403 4.8825 -2.2578 0
M  V30 72 Ag 1.0180 5.4711 -4.2665 0
M  V30 73 Ag 2.3237 4.8819 -6.0584 0
M  V30 74 Fe 4.3160 3.7071 -5.5295 0
M  V30 75 Ag 6.1305 2.3263 -4.8736 0
M  V30 76 Ag 1.9515 -1.9589 5.9864 0
M  V30 77 Fe 1.1157 0.1770 6.5868 0
M  V30 78 Ag 0.0047 2.2368 6.9646 0
M  V30 79 Ag -6.1188 0.2342 2.9076 0
M  V30 80 Fe -5.5525 0.0988 0.6036 0
M  V30 81 Ag -5.0331 0.0092 -1.7137 0
M  V30 82 Ba -2.4730 -4.6147 4.9906 0
M  V30 83 Ga -1.1217 -4.2230 5.4422 0
M  V30 84 Ba 0.2436 -3.8229 5.8418 0
M  V30 85 Ba 3.9577 -1.4618 -7.1824 0
M  V30 86 Ga 4.9601 -0.7137 -6.3754 0
M  V30 87 Ba 6.0340 0.0307 -5.6627 0
M  V30 88 Ba -5.4516 1.5390 4.8690 0
M  V30 89 Ga -4.2783 2.3186 5.3572 0
M  V30 90 Ba -3.1504 3.1712 5.8305 0
M  V30 91 Ba -1.5515 -5.2406 2.8555 0
M  V30 92 Ga -0.1818 -4.8764 3.2630 0
M  V30 93 Ba 1.1649 -4.4737 3.7091 0
M  V30 94 Ba -6.3462 -1.8414 4.4261 0
M  V30 95 Ga -5.5468 -3.0498 4.1341 0
M  V30 96 Ba -4.7734 -4.2759 3.8466 0
M  V30 97 Ba 5.4061 2.5964 -0.1995 0
M  V30 98 Ga 6.0788 2.0765 -1.4085 0
M  V30 99 Ba 6.8109 1.5793 -2.5925 0
M  V30 END ATOM
M  V30 BEGIN BOND
M  V30 1 1 1 2
M  V30 2 1 1 3
M  V30 3 1 1 4
M  V30 4 1 1 5
M  V30 5 1 6 7
M  V30 6 1 6 8
M  V30 7 1 6 9
M  V30 8 1 6 10
M  V30 9 1 11 12
M  V30 10 1 11 13
M  V30 11 1 11 14
M  V30 12 1 11 15
M  V30 13 1 16 17
M  V30 14 1 16 18
M  V30 15 1 16 19
M  V30 16 1 16 20
M  V30 17 1 21 22
M  V30 18 1 21 23
M  V30 19 1 21 24
M  V30 20 1 21 25
M  V30 21 1 26 27
M  V30 22 1 26 28
M  V30 23 1 26 29
M  V30 24 1 26 30
M  V30 25 1 31 32
M  V30 26 1 31 33
M  V30 27 1 31 34
M  V30 28 1 31 35
M  V30 29 1 36 37
M  V30 30 1 36 38
M  V30 31 1 36 39
M  V30 32 1 36 40
M  V30 33 1 41 42
M  V30 34 1 41 43
M  V30 35 1 41 44
M  V30 36 1 41 45
M  V30 37 1 46 47
M  V30 38 1 47 48
M  V30 39 1 49 50
M  V30 40 1 50 51
M  V30 41 1 52 53
M  V30 42 1 53 54
M  V30 43 1 55 56
M  V30 44 1 56 57
M  V30 45 1 58 59
M  V30 46 1 59 60
M  V30 47 1 61 62
M  V30 48 1 62 63
M  V30 49 1 64 65
M  V30 50 1 65 66
M  V30 51 1 67 68
M  V30 52 1 68 69
M  V30 53 1 70 71
M  V30 54 1 71 72
M  V30 55 1 73 74
M  V30 56 1 74 75
M  V30 57 1 76 77
M  V30 58 1 77 78
M  V30 59 1 79 80
M  V30 60 1 80 81
M  V30 61 1 82 83
M  V30 62 1 83 84
M  V30 63 1 85 86
M  V30 64 1 86 87
M  V30 65 1 88 89
M  V30 66 1 89 90
M  V30 67 1 91 92
M  V30 68 1 92 93
M  V30 69 1 94 95
M  V30 70 1 95 96
M  V30 71 1 97 98
M  V30 72 1 98 99
M  V30 73 1 2 49
M  V30 74 1 3 97
M  V30 75 1 4 67
M  V30 76 1 5 70
M  V30 77 1 7 46
M  V30 78 1 8 85
M  V30 79 1 9 64
M  V30 80 1 10 61
M  V30 81 1 12 88
M  V30 82 1 13 79
M  V30 83 1 14 94
M  V30 84 1 15 58
M  V30 85 1 17 96
M  V30 86 1 18 82
M  V30 87 1 19 55
M  V30 88 1 20 91
M  V30 89 1 22 48
M  V30 90 1 23 81
M  V30 91 1 24 57
M  V30 92 1 25 52
M  V30 93 1 27 84
M  V30 94 1 28 76
M  V30 95 1 29 69
M  V30 96 1 30 93
M  V30 97 1 32 51
M  V30 98 1 33 78
M  V30 99 1 34 60
M  V30 100 1 35 90
M  V30 101 1 37 54
M  V30 102 1 38 73
M  V30 103 1 39 66
M  V30 104 1 40 72
M  V30 105 1 42 87
M  V30 106 1 43 99
M  V30 107 1 44 75
M  V30 108 1 45 63
M  V30 END BOND
M  V30 END CTAB
M  END

$$$$
