
     RDKit          3D

  0  0  0  0  0  0  0  0  0  0999 V3000
M  V30 BEGIN CTAB
M  V30 COUNTS 99 108 0 0 0
M  V30 BEGIN ATOM
M  V30 1 Pd 3.1754 0.5748 -3.8305 0
M  V30 2 Pb 3.2267 -0.1736 -3.1710 0
M  V30 3 Pb 3.1538 1.3213 -4.5000 0
M  V30 4 Pb 2.3957 0.1602 -4.3047 0
M  V30 5 Pb 3.9534 0.9788 -3.3460 0
M  V30 6 Pd -0.9018 6.4285 0.0222 0
M  V30 7 Pb -1.3510 5.6824 0.5125 0
M  V30 8 Pb -0.4793 7.1875 -0.5012 0
M  V30 9 Pb -0.1410 6.4013 0.6767 0
M  V30 10 Pb -1.6450 6.4354 -0.6422 0
M  V30 11 Pd -1.4592 -5.7951 4.6925 0
M  V30 12 Pb -1.7468 -6.6113 4.2034 0
M  V30 13 Pb -1.1637 -4.9848 5.2058 0
M  V30 14 Pb -2.3772 -5.7240 5.0789 0
M  V30 15 Pb -0.5528 -5.8665 4.2406 0
M  V30 16 Pd -5.1705 -3.0249 2.7598 0
M  V30 17 Pb -5.2676 -3.6707 3.5155 0
M  V30 18 Pb -5.0070 -2.3841 2.0066 0
M  V30 19 Pb -5.3012 -2.2861 3.4165 0
M  V30 20 Pb -4.9415 -3.7561 2.1203 0
M  V30 21 Pd -1.4191 -0.1084 4.5254 0
M  V30 22 Pb -1.7154 0.6532 3.9496 0
M  V30 23 Pb -1.1388 -0.8772 5.1055 0
M  V30 24 Pb -2.3635 -0.1747 4.8464 0
M  V30 25 Pb -0.4810 -0.0191 4.1893 0
M  V30 26 Pd -1.1619 -3.1712 -3.3409 0
M  V30 27 Pb -1.7582 -2.4764 -2.9347 0
M  V30 28 Pb -0.5635 -3.8941 -3.6849 0
M  V30 29 Pb -0.7299 -2.5056 -3.9527 0
M  V30 30 Pb -1.6232 -3.8331 -2.7512 0
M  V30 31 Pd 1.5142 -6.3316 -0.4430 0
M  V30 32 Pb 2.0624 -5.5001 -0.4973 0
M  V30 33 Pb 1.4639 -6.3499 -1.4417 0
M  V30 34 Pb 1.5364 -6.2781 0.5721 0
M  V30 35 Pb 0.9371 -7.1385 -0.3823 0
M  V30 36 Pd 3.9890 3.8592 0.5311 0
M  V30 37 Pb 3.7014 3.0764 1.0844 0
M  V30 38 Pb 4.2926 4.6275 -0.0257 0
M  V30 39 Pb 3.4211 4.4768 1.0818 0
M  V30 40 Pb 4.5438 3.2695 -0.0584 0
M  V30 41 Pd 1.4538 7.6737 -4.9874 0
M  V30 42 Pb 1.1266 8.2002 -4.1909 0
M  V30 43 Pb 1.7763 6.9858 -5.6345 0
M  V30 44 Pb 2.3629 7.7100 -4.5862 0
M  V30 45 Pb 0.5125 7.5808 -5.3000 0
M  V30 46 Ag -1.7154 5.1279 0.8607 0
M  V30 47 Fe -1.7866 3.1710 2.2037 0
M  V30 48 Ag -1.9878 1.2142 3.5335 0
M  V30 49 Ag 3.3286 -0.7086 -2.6567 0
M  V30 50 Fe 2.8661 -2.7937 -1.6221 0
M  V30 51 Ag 2.4545 -4.8651 -0.5398 0
M  V30 52 Ag 0.2216 0.0520 3.9352 0
M  V30 53 Fe 1.8531 1.2742 2.7153 0
M  V30 54 Ag 3.4957 2.4850 1.4988 0
M  V30 55 Ag -4.8320 -1.9585 1.4113 0
M  V30 56 Fe -3.5672 -1.8755 -0.6006 0
M  V30 57 Ag -2.2246 -2.0232 -2.5574 0
M  V30 58 Ag -2.0880 6.4731 -1.2382 0
M  V30 59 Fe -1.6277 6.9394 -3.5045 0
M  V30 60 Ag -0.2208 7.4716 -5.3210 0
M  V30 61 Ag -1.8681 -7.1905 3.7574 0
M  V30 62 Fe -0.9454 -7.8455 1.6905 0
M  V30 63 Ag 0.4502 -7.6647 -0.1988 0
M  V30 64 Ag -4.6951 -4.2425 1.6084 0
M  V30 65 Fe -3.3714 -4.3943 -0.3552 0
M  V30 66 Ag -2.0111 -4.2852 -2.2968 0
M  V30 67 Ag 4.5097 5.1753 -0.4832 0
M  V30 68 Fe 3.9009 6.5108 -2.3420 0
M  V30 69 Ag 2.9920 7.6783 -4.1909 0
M  V30 70 Ag 3.1221 1.8689 -5.0159 0
M  V30 71 Fe 2.6038 4.1125 -5.6038 0
M  V30 72 Ag 2.0336 6.3850 -5.9996 0
M  V30 73 Ba -5.3274 -1.7579 3.9442 0
M  V30 74 Ga -4.2390 -0.9526 4.5236 0
M  V30 75 Ba -3.0874 -0.1939 5.0406 0
M  V30 76 Ba 0.1379 -5.9331 3.9185 0
M  V30 77 Ga 0.7976 -6.0785 2.5859 0
M  V30 78 Ba 1.5990 -6.2270 1.3339 0
M  V30 79 Ba -0.2184 7.7874 -0.8961 0
M  V30 80 Ga 0.3458 8.1276 -2.2337 0
M  V30 81 Ba 0.9144 8.5453 -3.5475 0
M  V30 82 Ba -3.0876 -5.6720 5.3089 0
M  V30 83 Ga -4.2234 -4.9224 4.7459 0
M  V30 84 Ba -5.2885 -4.1333 4.1038 0
M  V30 85 Ba 0.4175 6.3662 1.1819 0
M  V30 86 Ga 1.7080 5.6537 1.3153 0
M  V30 87 Ba 3.0038 4.9586 1.4839 0
M  V30 88 Ba 1.8149 -0.1166 -4.6945 0
M  V30 89 Ga 0.7086 -1.0808 -4.5212 0
M  V30 90 Ba -0.4275 -2.0224 -4.4431 0
M  V30 91 Ba 4.5417 1.2298 -2.9510 0
M  V30 92 Ga 4.7419 2.0549 -1.7418 0
M  V30 93 Ba 4.9714 2.8759 -0.5351 0
M  V30 94 Ba -0.1145 -4.4580 -3.8903 0
M  V30 95 Ga 0.6654 -5.4124 -3.0806 0
M  V30 96 Ba 1.4108 -6.3205 -2.1894 0
M  V30 97 Ba -0.9342 -4.3975 5.6184 0
M  V30 98 Ga -0.9442 -2.9199 5.5490 0
M  V30 99 Ba -0.9160 -1.4410 5.5520 0
M  V30 END ATOM
M  V30 BEGIN BOND
M  V30 1 1 1 2
M  V30 2 1 1 3
M  V30 3 1 1 4
M  V30 4 1 1 5
M  V30 5 1 6 7
M  V30 6 1 6 8
M  V30 7 1 6 9
M  V30 8 1 6 10
M  V30 9 1 11 12
M  V30 10 1 11 13
M  V30 11 1 11 14
M  V30 12 1 11 15
M  V30 13 1 16 17
M  V30 14 1 16 18
M  V30 15 1 16 19
M  V30 16 1 16 20
M  V30 17 1 21 22
M  V30 18 1 21 23
M  V30 19 1 21 24
M  V30 20 1 21 25
M  V30 21 1 26 27
M  V30 22 1 26 28
M  V30 23 1 26 29
M  V30 24 1 26 30
M  V30 25 1 31 32
M  V30 26 1 31 33
M  V30 27 1 31 34
M  V30 28 1 31 35
M  V30 29 1 36 37
M  V30 30 1 36 38
M  V30 31 1 36 39
M  V30 32 1 36 40
M  V30 33 1 41 42
M  V30 34 1 41 43
M  V30 35 1 41 44
M  V30 36 1 41 45
M  V30 37 1 46 47
M  V30 38 1 47 48
M  V30 39 1 49 50
M  V30 40 1 50 51
M  V30 41 1 52 53
M  V30 42 1 53 54
M  V30 43 1 55 56
M  V30 44 1 56 57
M  V30 45 1 58 59
M  V30 46 1 59 60
M  V30 47 1 61 62
M  V30 48 1 62 63
M  V30 49 1 64 65
M  V30 50 1 65 66
M  V30 51 1 67 68
M  V30 52 1 68 69
M  V30 53 1 70 71
M  V30 54 1 71 72
M  V30 55 1 73 74
M  V30 56 1 74 75
M  V30 57 1 76 77
M  V30 58 1 77 78
M  V30 59 1 79 80
M  V30 60 1 80 81
M  V30 61 1 82 83
M  V30 62 1 83 84
M  V30 63 1 85 86
M  V30 64 1 86 87
M  V30 65 1 88 89
M  V30 66 1 89 90
M  V30 67 1 91 92
M  V30 68 1 92 93
M  V30 69 1 94 95
M  V30 70 1 95 96
M  V30 71 1 97 98
M  V30 72 1 98 99
M  V30 73 1 2 49
M  V30 74 1 3 70
M  V30 75 1 4 88
M  V30 76 1 5 91
M  V30 77 1 7 46
M  V30 78 1 8 79
M  V30 79 1 9 85
M  V30 80 1 10 58
M  V30 81 1 12 61
M  V30 82 1 13 97
M  V30 83 1 14 82
M  V30 84 1 15 76
M  V30 85 1 17 84
M  V30 86 1 18 55
M  V30 87 1 19 73
M  V30 88 1 20 64
M  V30 89 1 22 48
M  V30 90 1 23 99
M  V30 91 1 24 75
M  V30 92 1 25 52
M  V30 93 1 27 57
M  V30 94 1 28 94
M  V30 95 1 29 90
M  V30 96 1 30 66
M  V30 97 1 32 51
M  V30 98 1 33 96
M  V30 99 1 34 78
M  V30 100 1 35 63
M  V30 101 1 37 54
M  V30 102 1 38 67
M  V30 103 1 39 87
M  V30 104 1 40 93
M  V30 105 1 42 81
M  V30 106 1 43 72
M  V30 107 1 44 69
M  V30 108 1 45 60
M  V30 END BOND
M  V30 END CTAB
M  END

$$$$
