
     RDKit          3D

  0  0  0  0  0  0  0  0  0  0999 V3000
M  V30 BEGIN CTAB
M  V30 COUNTS 99 108 0 0 0
M  V30 BEGIN ATOM
M  V30 1 Pd -2.8197 2.8030 -2.6054 0
M  V30 2 Pb -3.7889 2.9326 -2.3890 0
M  V30 3 Pb -2.8615 1.8620 -2.2715 0
M  V30 4 Pb -2.7632 3.7417 -2.9452 0
M  V30 5 Pb -1.8418 2.6817 -2.7788 0
M  V30 6 Pd 0.9633 -8.4323 -2.5494 0
M  V30 7 Pb 1.3698 -8.1999 -1.6669 0
M  V30 8 Pb 0.5624 -8.5245 -3.4570 0
M  V30 9 Pb 1.8485 -8.2817 -2.9754 0
M  V30 10 Pb 0.0411 -8.4049 -2.1674 0
M  V30 11 Pd -0.6518 0.7669 6.1889 0
M  V30 12 Pb -1.4744 0.4870 5.6937 0
M  V30 13 Pb -0.2255 -0.1253 6.0593 0
M  V30 14 Pb 0.2042 1.0700 6.6063 0
M  V30 15 Pb -1.0636 1.6756 6.2544 0
M  V30 16 Pd 3.2636 2.7416 3.6474 0
M  V30 17 Pb 3.2542 2.4567 4.6065 0
M  V30 18 Pb 2.5823 3.4413 3.8588 0
M  V30 19 Pb 3.9605 2.0605 3.4129 0
M  V30 20 Pb 3.2307 3.0656 2.7014 0
M  V30 21 Pd 4.1976 -2.6030 1.5290 0
M  V30 22 Pb 3.8777 -3.5197 1.2765 0
M  V30 23 Pb 3.6875 -2.7098 2.3807 0
M  V30 24 Pb 4.5820 -1.7332 1.8501 0
M  V30 25 Pb 4.6840 -2.4680 0.6623 0
M  V30 26 Pd -1.3643 6.9764 -0.1070 0
M  V30 27 Pb -1.1203 6.9167 0.8592 0
M  V30 28 Pb -2.2611 7.3541 0.1192 0
M  V30 29 Pb -1.6198 6.9580 -1.0712 0
M  V30 30 Pb -0.4906 6.5317 -0.3079 0
M  V30 31 Pd -5.2155 4.3358 1.8504 0
M  V30 32 Pb -5.5976 4.0825 0.9605 0
M  V30 33 Pb -5.2265 5.3010 1.5892 0
M  V30 34 Pb -4.7803 4.5608 2.7225 0
M  V30 35 Pb -5.1568 3.3775 2.1301 0
M  V30 36 Pd 3.1525 -1.9380 -3.9362 0
M  V30 37 Pb 3.9206 -1.8489 -3.2986 0
M  V30 38 Pb 2.3715 -2.0572 -4.5566 0
M  V30 39 Pb 3.4767 -2.8605 -4.1326 0
M  V30 40 Pb 2.8387 -1.0071 -3.7488 0
M  V30 41 Pd -1.5990 -4.7348 -3.9879 0
M  V30 42 Pb -1.3747 -5.4901 -4.6039 0
M  V30 43 Pb -1.8567 -3.9936 -3.3682 0
M  V30 44 Pb -1.1486 -4.0796 -4.6000 0
M  V30 45 Pb -1.9837 -5.4090 -3.3527 0
M  V30 46 Ag 1.6984 -7.9523 -1.0402 0
M  V30 47 Fe 2.6693 -6.0802 0.0570 0
M  V30 48 Ag 3.6496 -4.2323 1.1862 0
M  V30 49 Ag 2.0766 3.9848 3.9592 0
M  V30 50 Fe 0.5538 5.4446 2.8718 0
M  V30 51 Ag -0.8954 6.7919 1.5617 0
M  V30 52 Ag -1.4186 2.3352 6.2206 0
M  V30 53 Fe -2.9160 3.6070 4.8862 0
M  V30 54 Ag -4.4152 4.6548 3.3711 0
M  V30 55 Ag -2.0868 0.3591 5.2801 0
M  V30 56 Fe -3.6428 1.4017 3.8196 0
M  V30 57 Ag -5.0493 2.6865 2.4013 0
M  V30 58 Ag 3.1405 3.3647 2.0190 0
M  V30 59 Fe 1.7204 4.7505 0.7122 0
M  V30 60 Ag 0.1542 6.1559 -0.3908 0
M  V30 61 Ag 2.4548 -8.0087 -3.3072 0
M  V30 62 Fe 3.2639 -5.8538 -3.8638 0
M  V30 63 Ag 3.7180 -3.5595 -4.2393 0
M  V30 64 Ag -1.1044 2.5864 -2.8807 0
M  V30 65 Fe 0.7479 1.1479 -3.2574 0
M  V30 66 Ag 2.5843 -0.3107 -3.6347 0
M  V30 67 Ag -2.8698 1.1530 -2.0291 0
M  V30 68 Fe -2.4721 -1.1482 -2.4596 0
M  V30 69 Ag -2.0703 -3.4464 -2.9019 0
M  V30 70 Ag 0.1477 -0.7597 5.9308 0
M  V30 71 Fe 1.7075 -1.8394 4.5064 0
M  V30 72 Ag 3.2728 -2.7902 2.9984 0
M  V30 73 Ba -4.5103 3.0351 -2.2048 0
M  V30 74 Ga -5.1991 3.4602 -0.9693 0
M  V30 75 Ba -5.8561 3.8885 0.2823 0
M  V30 76 Ba 5.0639 -2.3102 0.0315 0
M  V30 77 Ga 4.7612 -2.0770 -1.3971 0
M  V30 78 Ba 4.5127 -1.8347 -2.8345 0
M  V30 79 Ba 4.5087 1.5813 3.2245 0
M  V30 80 Ga 4.6599 0.2231 2.6596 0
M  V30 81 Ba 4.9371 -1.1181 2.1023 0
M  V30 82 Ba -0.6638 -8.2743 -1.9502 0
M  V30 83 Ga -1.5079 -7.1367 -2.3672 0
M  V30 84 Ba -2.2166 -5.9464 -2.8795 0
M  V30 85 Ba 0.2550 -8.4762 -4.1353 0
M  V30 86 Ga -0.4969 -7.3257 -4.6612 0
M  V30 87 Ba -1.2208 -6.0952 -5.0195 0
M  V30 88 Ba 0.8830 1.2651 6.8572 0
M  V30 89 Ga 2.0647 1.7742 6.1357 0
M  V30 90 Ba 3.1947 2.2809 5.3339 0
M  V30 91 Ba -2.7030 4.4489 -3.1870 0
M  V30 92 Ga -2.2744 5.6937 -2.5264 0
M  V30 93 Ba -1.8326 6.8868 -1.7843 0
M  V30 94 Ba 1.7808 -2.1316 -5.0202 0
M  V30 95 Ga 0.4980 -2.8706 -5.0245 0
M  V30 96 Ba -0.7912 -3.5977 -5.0557 0
M  V30 97 Ba -2.9523 7.5847 0.2924 0
M  V30 98 Ga -4.1021 6.8452 0.8435 0
M  V30 99 Ba -5.1951 6.0248 1.3959 0
M  V30 END ATOM
M  V30 BEGIN BOND
M  V30 1 1 1 2
M  V30 2 1 1 3
M  V30 3 1 1 4
M  V30 4 1 1 5
M  V30 5 1 6 7
M  V30 6 1 6 8
M  V30 7 1 6 9
M  V30 8 1 6 10
M  V30 9 1 11 12
M  V30 10 1 11 13
M  V30 11 1 11 14
M  V30 12 1 11 15
M  V30 13 1 16 17
M  V30 14 1 16 18
M  V30 15 1 16 19
M  V30 16 1 16 20
M  V30 17 1 21 22
M  V30 18 1 21 23
M  V30 19 1 21 24
M  V30 20 1 21 25
M  V30 21 1 26 27
M  V30 22 1 26 28
M  V30 23 1 26 29
M  V30 24 1 26 30
M  V30 25 1 31 32
M  V30 26 1 31 33
M  V30 27 1 31 34
M  V30 28 1 31 35
M  V30 29 1 36 37
M  V30 30 1 36 38
M  V30 31 1 36 39
M  V30 32 1 36 40
M  V30 33 1 41 42
M  V30 34 1 41 43
M  V30 35 1 41 44
M  V30 36 1 41 45
M  V30 37 1 46 47
M  V30 38 1 47 48
M  V30 39 1 49 50
M  V30 40 1 50 51
M  V30 41 1 52 53
M  V30 42 1 53 54
M  V30 43 1 55 56
M  V30 44 1 56 57
M  V30 45 1 58 59
M  V30 46 1 59 60
M  V30 47 1 61 62
M  V30 48 1 62 63
M  V30 49 1 64 65
M  V30 50 1 65 66
M  V30 51 1 67 68
M  V30 52 1 68 69
M  V30 53 1 70 71
M  V30 54 1 71 72
M  V30 55 1 73 74
M  V30 56 1 74 75
M  V30 57 1 76 77
M  V30 58 1 77 78
M  V30 59 1 79 80
M  V30 60 1 80 81
M  V30 61 1 82 83
M  V30 62 1 83 84
M  V30 63 1 85 86
M  V30 64 1 86 87
M  V30 65 1 88 89
M  V30 66 1 89 90
M  V30 67 1 91 92
M  V30 68 1 92 93
M  V30 69 1 94 95
M  V30 70 1 95 96
M  V30 71 1 97 98
M  V30 72 1 98 99
M  V30 73 1 2 73
M  V30 74 1 3 67
M  V30 75 1 4 91
M  V30 76 1 5 64
M  V30 77 1 7 46
M  V30 78 1 8 85
M  V30 79 1 9 61
M  V30 80 1 10 82
M  V30 81 1 12 55
M  V30 82 1 13 70
M  V30 83 1 14 88
M  V30 84 1 15 52
M  V30 85 1 17 90
M  V30 86 1 18 49
M  V30 87 1 19 79
M  V30 88 1 20 58
M  V30 89 1 22 48
M  V30 90 1 23 72
M  V30 91 1 24 81
M  V30 92 1 25 76
M  V30 93 1 27 51
M  V30 94 1 28 97
M  V30 95 1 29 93
M  V30 96 1 30 60
M  V30 97 1 32 75
M  V30 98 1 33 99
M  V30 99 1 34 54
M  V30 100 1 35 57
M  V30 101 1 37 78
M  V30 102 1 38 94
M  V30 103 1 39 63
M  V30 104 1 40 66
M  V30 105 1 42 87
M  V30 106 1 43 69
M  V30 107 1 44 96
M  V30 108 1 45 84
M  V30 END BOND
M  V30 END CTAB
M  END

$$$$
