
     RDKit          3D

  0  0  0  0  0  0  0  0  0  0999 V3000
M  V30 BEGIN CTAB
M  V30 COUNTS 99 108 0 0 0
M  V30 BEGIN ATOM
M  V30 1 Pd 0.2970 -4.4927 0.7640 0
M  V30 2 Pb 1.0601 -5.1218 0.6233 0
M  V30 3 Pb -0.3932 -3.7888 0.9363 0
M  V30 4 Pb 0.5061 -4.4901 1.7391 0
M  V30 5 Pb 0.1336 -4.4603 -0.2239 0
M  V30 6 Pd -7.5745 0.8841 0.3943 0
M  V30 7 Pb -7.0380 1.6811 0.1101 0
M  V30 8 Pb -7.2226 0.9595 1.3275 0
M  V30 9 Pb -7.8421 0.7212 -0.5547 0
M  V30 10 Pb -8.0765 0.0681 0.6839 0
M  V30 11 Pd 4.2378 2.8845 -3.4869 0
M  V30 12 Pb 3.9548 1.9340 -3.6331 0
M  V30 13 Pb 3.5022 3.2594 -4.0512 0
M  V30 14 Pb 4.5220 3.8094 -3.2482 0
M  V30 15 Pb 4.9389 2.5295 -2.8735 0
M  V30 16 Pd 3.5659 5.7932 2.7200 0
M  V30 17 Pb 4.0438 6.2069 1.9499 0
M  V30 18 Pb 4.4103 5.3783 3.0619 0
M  V30 19 Pb 2.7117 6.1057 2.3015 0
M  V30 20 Pb 3.0917 5.2897 3.4411 0
M  V30 21 Pd -1.2865 4.2138 -3.0653 0
M  V30 22 Pb -2.1548 4.1696 -2.5649 0
M  V30 23 Pb -0.4493 4.2900 -3.6133 0
M  V30 24 Pb -0.9376 4.8108 -2.3372 0
M  V30 25 Pb -1.6406 3.6134 -3.7837 0
M  V30 26 Pd 4.8632 -0.8107 5.1486 0
M  V30 27 Pb 5.4974 -0.0543 4.9840 0
M  V30 28 Pb 5.5117 -1.5027 4.8232 0
M  V30 29 Pb 4.1861 -1.5333 5.2666 0
M  V30 30 Pb 4.1939 -0.1147 5.4101 0
M  V30 31 Pd 5.3317 -3.2013 0.4262 0
M  V30 32 Pb 4.8687 -4.0896 0.4590 0
M  V30 33 Pb 5.7926 -3.3670 1.3013 0
M  V30 34 Pb 5.7967 -2.3232 0.3503 0
M  V30 35 Pb 4.8675 -2.9717 -0.4340 0
M  V30 36 Pd -4.2192 -2.5273 -4.9476 0
M  V30 37 Pb -3.8781 -1.7041 -5.3982 0
M  V30 38 Pb -4.5291 -3.2931 -4.3891 0
M  V30 39 Pb -5.1259 -2.1095 -4.9053 0
M  V30 40 Pb -3.2997 -2.9071 -4.8665 0
M  V30 41 Pd -5.2530 -2.8375 2.0789 0
M  V30 42 Pb -5.3433 -2.0433 2.6807 0
M  V30 43 Pb -4.2769 -2.6431 1.9727 0
M  V30 44 Pb -5.2083 -3.5605 1.3927 0
M  V30 45 Pb -6.2467 -2.9254 2.0914 0
M  V30 46 Ag -6.6277 2.2747 -0.1014 0
M  V30 47 Fe -4.7038 3.1907 -1.1569 0
M  V30 48 Ag -2.8093 4.1871 -2.1926 0
M  V30 49 Ag -1.8728 3.1589 -4.3346 0
M  V30 50 Fe -2.7503 1.0715 -5.0507 0
M  V30 51 Ag -3.6335 -1.0470 -5.6607 0
M  V30 52 Ag 2.1022 6.3081 1.9109 0
M  V30 53 Fe 0.6749 5.7938 0.0789 0
M  V30 54 Ag -0.7311 5.2528 -1.7619 0
M  V30 55 Ag 4.9934 4.9744 3.3091 0
M  V30 56 Fe 5.5902 2.8136 4.0976 0
M  V30 57 Ag 5.8793 0.5783 4.8505 0
M  V30 58 Ag 5.4195 2.2322 -2.3852 0
M  V30 59 Fe 5.8758 0.3403 -1.0317 0
M  V30 60 Ag 6.1095 -1.6579 0.2219 0
M  V30 61 Ag 3.7976 1.1976 -3.6451 0
M  V30 62 Fe 4.1084 -0.8281 -2.4356 0
M  V30 63 Ag 4.5395 -2.7269 -1.0675 0
M  V30 64 Ag 2.8159 4.8261 3.9611 0
M  V30 65 Fe 3.1478 2.6536 4.8604 0
M  V30 66 Ag 3.7222 0.4532 5.5443 0
M  V30 67 Ag 4.7223 4.4685 -2.9623 0
M  V30 68 Fe 4.6460 5.6427 -0.9064 0
M  V30 69 Ag 4.3484 6.4313 1.3074 0
M  V30 70 Ag -7.9677 0.5392 -1.2705 0
M  V30 71 Fe -6.9980 -0.5819 -3.1248 0
M  V30 72 Ag -5.7768 -1.7581 -4.7864 0
M  V30 73 Ag 0.7081 -4.4437 2.4568 0
M  V30 74 Fe 2.1430 -3.3241 3.9767 0
M  V30 75 Ag 3.6661 -2.0690 5.2911 0
M  V30 76 Ag 0.0422 -4.4242 -0.9694 0
M  V30 77 Fe -1.2483 -3.8346 -2.8747 0
M  V30 78 Ag -2.6334 -3.2043 -4.6986 0
M  V30 79 Ag -4.6997 -3.8160 -3.8834 0
M  V30 80 Fe -4.9906 -4.1007 -1.5472 0
M  V30 81 Ag -5.2166 -4.0318 0.8125 0
M  V30 82 Ba 1.6742 -5.5449 0.5513 0
M  V30 83 Ga 3.1028 -5.1771 0.4981 0
M  V30 84 Ba 4.5164 -4.7542 0.4501 0
M  V30 85 Ba -8.4005 -0.5624 0.9310 0
M  V30 86 Ga -7.7787 -1.7713 1.4996 0
M  V30 87 Ba -6.9918 -2.8936 2.0401 0
M  V30 88 Ba -6.9215 0.9249 2.0138 0
M  V30 89 Ga -6.1771 -0.1975 2.6171 0
M  V30 90 Ba -5.4602 -1.4079 3.0628 0
M  V30 91 Ba -0.8386 -3.2098 1.1104 0
M  V30 92 Ga -2.2320 -2.8899 1.4784 0
M  V30 93 Ba -3.5736 -2.4056 1.8587 0
M  V30 94 Ba 5.9586 -2.0490 4.5613 0
M  V30 95 Ga 6.0641 -2.7539 3.2650 0
M  V30 96 Ba 6.1506 -3.4440 1.9594 0
M  V30 97 Ba 2.9595 3.5868 -4.4526 0
M  V30 98 Ga 1.5417 3.9436 -4.2376 0
M  V30 99 Ba 0.1238 4.3364 -4.1007 0
M  V30 END ATOM
M  V30 BEGIN BOND
M  V30 1 1 1 2
M  V30 2 1 1 3
M  V30 3 1 1 4
M  V30 4 1 1 5
M  V30 5 1 6 7
M  V30 6 1 6 8
M  V30 7 1 6 9
M  V30 8 1 6 10
M  V30 9 1 11 12
M  V30 10 1 11 13
M  V30 11 1 11 14
M  V30 12 1 11 15
M  V30 13 1 16 17
M  V30 14 1 16 18
M  V30 15 1 16 19
M  V30 16 1 16 20
M  V30 17 1 21 22
M  V30 18 1 21 23
M  V30 19 1 21 24
M  V30 20 1 21 25
M  V30 21 1 26 27
M  V30 22 1 26 28
M  V30 23 1 26 29
M  V30 24 1 26 30
M  V30 25 1 31 32
M  V30 26 1 31 33
M  V30 27 1 31 34
M  V30 28 1 31 35
M  V30 29 1 36 37
M  V30 30 1 36 38
M  V30 31 1 36 39
M  V30 32 1 36 40
M  V30 33 1 41 42
M  V30 34 1 41 43
M  V30 35 1 41 44
M  V30 36 1 41 45
M  V30 37 1 46 47
M  V30 38 1 47 48
M  V30 39 1 49 50
M  V30 40 1 50 51
M  V30 41 1 52 53
M  V30 42 1 53 54
M  V30 43 1 55 56
M  V30 44 1 56 57
M  V30 45 1 58 59
M  V30 46 1 59 60
M  V30 47 1 61 62
M  V30 48 1 62 63
M  V30 49 1 64 65
M  V30 50 1 65 66
M  V30 51 1 67 68
M  V30 52 1 68 69
M  V30 53 1 70 71
M  V30 54 1 71 72
M  V30 55 1 73 74
M  V30 56 1 74 75
M  V30 57 1 76 77
M  V30 58 1 77 78
M  V30 59 1 79 80
M  V30 60 1 80 81
M  V30 61 1 82 83
M  V30 62 1 83 84
M  V30 63 1 85 86
M  V30 64 1 86 87
M  V30 65 1 88 89
M  V30 66 1 89 90
M  V30 67 1 91 92
M  V30 68 1 92 93
M  V30 69 1 94 95
M  V30 70 1 95 96
M  V30 71 1 97 98
M  V30 72 1 98 99
M  V30 73 1 2 82
M  V30 74 1 3 91
M  V30 75 1 4 73
M  V30 76 1 5 76
M  V30 77 1 7 46
M  V30 78 1 8 88
M  V30 79 1 9 70
M  V30 80 1 10 85
M  V30 81 1 12 61
M  V30 82 1 13 97
M  V30 83 1 14 67
M  V30 84 1 15 58
M  V30 85 1 17 69
M  V30 86 1 18 55
M  V30 87 1 19 52
M  V30 88 1 20 64
M  V30 89 1 22 48
M  V30 90 1 23 99
M  V30 91 1 24 54
M  V30 92 1 25 49
M  V30 93 1 27 57
M  V30 94 1 28 94
M  V30 95 1 29 75
M  V30 96 1 30 66
M  V30 97 1 32 84
M  V30 98 1 33 96
M  V30 99 1 34 60
M  V30 100 1 35 63
M  V30 101 1 37 51
M  V30 102 1 38 79
M  V30 103 1 39 72
M  V30 104 1 40 78
M  V30 105 1 42 90
M  V30 106 1 43 93
M  V30 107 1 44 81
M  V30 108 1 45 87
M  V30 END BOND
M  V30 END CTAB
M  END

$$$$
