
     RDKit          3D

  0  0  0  0  0  0  0  0  0  0999 V3000
M  V30 BEGIN CTAB
M  V30 COUNTS 99 108 0 0 0
M  V30 BEGIN ATOM
M  V30 1 Pd -3.9316 -2.2215 1.6783 0
M  V30 2 Pb -3.8294 -3.1281 1.2644 0
M  V30 3 Pb -4.0312 -1.3259 2.1119 0
M  V30 4 Pb -4.5597 -1.9162 0.9556 0
M  V30 5 Pb -3.3671 -2.5407 2.4427 0
M  V30 6 Pd 1.9027 5.6951 4.0994 0
M  V30 7 Pb 1.5215 5.1463 3.3533 0
M  V30 8 Pb 2.2287 6.1428 4.9296 0
M  V30 9 Pb 2.6968 5.0986 4.1127 0
M  V30 10 Pb 0.9883 6.0855 4.2560 0
M  V30 11 Pd 4.8151 -3.0761 -5.0328 0
M  V30 12 Pb 4.2271 -3.5362 -5.6982 0
M  V30 13 Pb 5.3186 -2.6087 -4.3065 0
M  V30 14 Pb 4.8807 -2.2614 -5.6110 0
M  V30 15 Pb 4.6630 -3.8649 -4.4375 0
M  V30 16 Pd 1.1449 3.2265 -5.8104 0
M  V30 17 Pb 1.9372 2.8277 -6.2724 0
M  V30 18 Pb 0.3431 3.5047 -5.2776 0
M  V30 19 Pb 1.7521 3.7047 -5.1784 0
M  V30 20 Pb 0.5219 2.6823 -6.3678 0
M  V30 21 Pd 3.2981 1.4325 0.6962 0
M  V30 22 Pb 2.4953 1.9330 1.0255 0
M  V30 23 Pb 4.0752 0.9471 0.2948 0
M  V30 24 Pb 3.5393 2.2428 0.1663 0
M  V30 25 Pb 3.0070 0.5722 1.1229 0
M  V30 26 Pd -4.6935 -0.4495 -3.8097 0
M  V30 27 Pb -4.4000 0.4778 -3.5699 0
M  V30 28 Pb -4.9164 -1.3834 -4.0830 0
M  V30 29 Pb -5.1576 -0.5888 -2.9319 0
M  V30 30 Pb -4.2148 -0.3148 -4.6762 0
M  V30 31 Pd -1.1309 -6.7339 -3.8339 0
M  V30 32 Pb -1.5832 -6.7922 -2.9447 0
M  V30 33 Pb -2.0156 -6.4796 -4.2176 0
M  V30 34 Pb -0.2263 -6.8851 -3.4368 0
M  V30 35 Pb -0.6614 -6.5671 -4.7013 0
M  V30 36 Pd 0.5933 -1.0699 5.0023 0
M  V30 37 Pb 1.0218 -1.3497 4.1448 0
M  V30 38 Pb 0.1574 -0.7785 5.8596 0
M  V30 39 Pb 1.3578 -0.4341 5.1001 0
M  V30 40 Pb -0.1437 -1.7342 4.8699 0
M  V30 41 Pd -1.9083 3.3381 6.8710 0
M  V30 42 Pb -1.3679 3.7476 7.6038 0
M  V30 43 Pb -2.4636 2.9524 6.1340 0
M  V30 44 Pb -1.8056 2.4316 7.2821 0
M  V30 45 Pb -1.8842 4.2279 6.3888 0
M  V30 46 Ag -3.7252 -3.8229 0.9960 0
M  V30 47 Fe -2.8517 -5.3187 -0.6306 0
M  V30 48 Ag -1.9556 -6.7584 -2.2950 0
M  V30 49 Ag 2.1953 3.9915 -4.6484 0
M  V30 50 Fe 3.0242 3.5556 -2.4692 0
M  V30 51 Ag 3.6530 2.8101 -0.3071 0
M  V30 52 Ag -0.2804 3.6074 -4.8693 0
M  V30 53 Fe -2.2406 2.5046 -4.0971 0
M  V30 54 Ag -4.1028 1.1624 -3.4767 0
M  V30 55 Ag 4.4515 -4.4522 -4.0220 0
M  V30 56 Fe 2.5577 -5.7860 -3.5001 0
M  V30 57 Ag 0.4859 -6.9075 -3.2047 0
M  V30 58 Ag 2.3090 6.3199 5.6454 0
M  V30 59 Fe 0.9338 5.4705 7.3590 0
M  V30 60 Ag -0.8935 4.1385 8.0230 0
M  V30 61 Ag 3.7249 -3.9169 -6.1051 0
M  V30 62 Fe 1.7281 -5.1820 -5.8721 0
M  V30 63 Ag -0.2398 -6.3795 -5.2929 0
M  V30 64 Ag 0.0038 2.2487 -6.6871 0
M  V30 65 Fe -1.9318 0.9897 -6.1429 0
M  V30 66 Ag -3.8198 -0.1707 -5.2957 0
M  V30 67 Ag 4.8760 -1.6289 -6.0160 0
M  V30 68 Fe 3.7747 0.4454 -6.3755 0
M  V30 69 Ag 2.5229 2.4563 -6.5586 0
M  V30 70 Ag 3.1434 4.5155 4.2266 0
M  V30 71 Fe 2.7499 2.2200 4.6668 0
M  V30 72 Ag 1.9490 0.0261 5.0765 0
M  V30 73 Ag -4.1197 -0.6533 2.4317 0
M  V30 74 Fe -3.4821 0.9980 4.0153 0
M  V30 75 Ag -2.8909 2.6861 5.5779 0
M  V30 76 Ag -5.0110 -2.0919 -4.3038 0
M  V30 77 Fe -3.9625 -4.2152 -4.4405 0
M  V30 78 Ag -2.6754 -6.2074 -4.4383 0
M  V30 79 Ag 5.6331 -2.2488 -3.7288 0
M  V30 80 Fe 5.2229 -0.8335 -1.8663 0
M  V30 81 Ag 4.6303 0.5816 -0.0533 0
M  V30 82 Ba 1.1936 4.6927 2.8515 0
M  V30 83 Ga 1.5720 3.5208 2.0346 0
M  V30 84 Ba 1.8906 2.3461 1.1967 0
M  V30 85 Ba 2.8041 -0.1152 1.3564 0
M  V30 86 Ga 2.0797 -0.7930 2.4502 0
M  V30 87 Ba 1.3703 -1.5384 3.5096 0
M  V30 88 Ba 0.2780 6.2838 4.4337 0
M  V30 89 Ga -0.7828 5.5954 5.2226 0
M  V30 90 Ba -1.8303 4.8907 6.0150 0
M  V30 91 Ba -5.0844 -1.6680 0.4730 0
M  V30 92 Ga -5.2462 -1.1969 -0.9203 0
M  V30 93 Ba -5.5292 -0.7104 -2.2889 0
M  V30 94 Ba -2.9877 -2.8216 3.0286 0
M  V30 95 Ga -1.8256 -2.4963 3.8803 0
M  V30 96 Ba -0.6805 -2.2516 4.7808 0
M  V30 97 Ba -0.2006 -0.5929 6.4979 0
M  V30 98 Ga -0.9348 0.5767 7.0289 0
M  V30 99 Ba -1.6675 1.7473 7.5596 0
M  V30 END ATOM
M  V30 BEGIN BOND
M  V30 1 1 1 2
M  V30 2 1 1 3
M  V30 3 1 1 4
M  V30 4 1 1 5
M  V30 5 1 6 7
M  V30 6 1 6 8
M  V30 7 1 6 9
M  V30 8 1 6 10
M  V30 9 1 11 12
M  V30 10 1 11 13
M  V30 11 1 11 14
M  V30 12 1 11 15
M  V30 13 1 16 17
M  V30 14 1 16 18
M  V30 15 1 16 19
M  V30 16 1 16 20
M  V30 17 1 21 22
M  V30 18 1 21 23
M  V30 19 1 21 24
M  V30 20 1 21 25
M  V30 21 1 26 27
M  V30 22 1 26 28
M  V30 23 1 26 29
M  V30 24 1 26 30
M  V30 25 1 31 32
M  V30 26 1 31 33
M  V30 27 1 31 34
M  V30 28 1 31 35
M  V30 29 1 36 37
M  V30 30 1 36 38
M  V30 31 1 36 39
M  V30 32 1 36 40
M  V30 33 1 41 42
M  V30 34 1 41 43
M  V30 35 1 41 44
M  V30 36 1 41 45
M  V30 37 1 46 47
M  V30 38 1 47 48
M  V30 39 1 49 50
M  V30 40 1 50 51
M  V30 41 1 52 53
M  V30 42 1 53 54
M  V30 43 1 55 56
M  V30 44 1 56 57
M  V30 45 1 58 59
M  V30 46 1 59 60
M  V30 47 1 61 62
M  V30 48 1 62 63
M  V30 49 1 64 65
M  V30 50 1 65 66
M  V30 51 1 67 68
M  V30 52 1 68 69
M  V30 53 1 70 71
M  V30 54 1 71 72
M  V30 55 1 73 74
M  V30 56 1 74 75
M  V30 57 1 76 77
M  V30 58 1 77 78
M  V30 59 1 79 80
M  V30 60 1 80 81
M  V30 61 1 82 83
M  V30 62 1 83 84
M  V30 63 1 85 86
M  V30 64 1 86 87
M  V30 65 1 88 89
M  V30 66 1 89 90
M  V30 67 1 91 92
M  V30 68 1 92 93
M  V30 69 1 94 95
M  V30 70 1 95 96
M  V30 71 1 97 98
M  V30 72 1 98 99
M  V30 73 1 2 46
M  V30 74 1 3 73
M  V30 75 1 4 91
M  V30 76 1 5 94
M  V30 77 1 7 82
M  V30 78 1 8 58
M  V30 79 1 9 70
M  V30 80 1 10 88
M  V30 81 1 12 61
M  V30 82 1 13 79
M  V30 83 1 14 67
M  V30 84 1 15 55
M  V30 85 1 17 69
M  V30 86 1 18 52
M  V30 87 1 19 49
M  V30 88 1 20 64
M  V30 89 1 22 84
M  V30 90 1 23 81
M  V30 91 1 24 51
M  V30 92 1 25 85
M  V30 93 1 27 54
M  V30 94 1 28 76
M  V30 95 1 29 93
M  V30 96 1 30 66
M  V30 97 1 32 48
M  V30 98 1 33 78
M  V30 99 1 34 57
M  V30 100 1 35 63
M  V30 101 1 37 87
M  V30 102 1 38 97
M  V30 103 1 39 72
M  V30 104 1 40 96
M  V30 105 1 42 60
M  V30 106 1 43 75
M  V30 107 1 44 99
M  V30 108 1 45 90
M  V30 END BOND
M  V30 END CTAB
M  END

$$$$
