
     RDKit          3D

  0  0  0  0  0  0  0  0  0  0999 V3000
M  V30 BEGIN CTAB
M  V30 COUNTS 99 108 0 0 0
M  V30 BEGIN ATOM
M  V30 1 Pd 2.7556 3.9174 1.4023 0
M  V30 2 Pb 1.9453 4.4736 1.5912 0
M  V30 3 Pb 2.4796 3.7853 0.4468 0
M  V30 4 Pb 2.9478 3.9215 2.3796 0
M  V30 5 Pb 3.5379 3.3153 1.2692 0
M  V30 6 Pd 1.3671 0.2056 -8.0341 0
M  V30 7 Pb 0.7640 -0.3070 -7.4193 0
M  V30 8 Pb 1.0267 1.0895 -7.6777 0
M  V30 9 Pb 1.9279 -0.6024 -8.1843 0
M  V30 10 Pb 1.9657 0.7000 -8.6575 0
M  V30 11 Pd -6.5245 -1.7444 1.7616 0
M  V30 12 Pb -6.7482 -0.9930 1.1539 0
M  V30 13 Pb -6.4115 -2.3413 0.9728 0
M  V30 14 Pb -6.2993 -2.5415 2.3234 0
M  V30 15 Pb -6.5287 -1.0986 2.5525 0
M  V30 16 Pd -2.0369 -4.0909 3.7777 0
M  V30 17 Pb -2.9659 -4.4072 3.5900 0
M  V30 18 Pb -2.4349 -3.5707 4.5291 0
M  V30 19 Pb -1.6392 -4.6616 3.0515 0
M  V30 20 Pb -1.1292 -3.7461 4.0291 0
M  V30 21 Pd -0.5993 -4.4037 -1.7964 0
M  V30 22 Pb -0.6629 -3.8717 -2.6445 0
M  V30 23 Pb -1.5968 -4.4215 -1.7711 0
M  V30 24 Pb -0.5679 -4.9224 -0.9376 0
M  V30 25 Pb 0.4008 -4.4150 -1.8378 0
M  V30 26 Pd -0.5903 0.1912 6.5857 0
M  V30 27 Pb -1.3775 -0.4131 6.6603 0
M  V30 28 Pb -1.1607 0.9466 6.9036 0
M  V30 29 Pb 0.1888 0.8108 6.5063 0
M  V30 30 Pb -0.0537 -0.5621 6.1967 0
M  V30 31 Pd -4.2584 3.2824 4.0196 0
M  V30 32 Pb -3.5770 3.9852 3.8122 0
M  V30 33 Pb -3.8784 3.1641 4.9397 0
M  V30 34 Pb -4.9065 2.5045 4.1560 0
M  V30 35 Pb -4.6637 3.4573 3.1313 0
M  V30 36 Pd 6.1341 -0.9436 -3.2066 0
M  V30 37 Pb 5.7250 -1.8065 -2.9130 0
M  V30 38 Pb 6.4666 -0.0277 -3.4470 0
M  V30 39 Pb 5.9995 -1.2488 -4.1505 0
M  V30 40 Pb 6.2212 -0.6394 -2.2637 0
M  V30 41 Pd 3.7487 3.6552 -4.5277 0
M  V30 42 Pb 2.8742 3.6562 -5.0470 0
M  V30 43 Pb 3.2218 3.4831 -3.6913 0
M  V30 44 Pb 4.6405 3.4828 -4.1063 0
M  V30 45 Pb 4.2380 3.8742 -5.3666 0
M  V30 46 Ag 0.2981 -0.7018 -6.9800 0
M  V30 47 Fe -0.1660 -2.0855 -5.1025 0
M  V30 48 Ag -0.7828 -3.4703 -3.2705 0
M  V30 49 Ag 1.3332 4.8555 1.8002 0
M  V30 50 Fe -0.8656 4.7391 2.6935 0
M  V30 51 Ag -3.0502 4.4716 3.5892 0
M  V30 52 Ag 1.1508 -4.4487 -1.8611 0
M  V30 53 Fe 3.2700 -3.4588 -2.2737 0
M  V30 54 Ag 5.3678 -2.4289 -2.6980 0
M  V30 55 Ag 2.4677 1.1352 -8.9845 0
M  V30 56 Fe 3.8312 2.7681 -7.9830 0
M  V30 57 Ag 4.4978 3.9405 -6.0570 0
M  V30 58 Ag -6.8335 -0.3658 0.7740 0
M  V30 59 Fe -6.0941 1.8227 1.2123 0
M  V30 60 Ag -5.0098 3.4803 2.4794 0
M  V30 61 Ag 2.4855 -1.0958 -8.1481 0
M  V30 62 Fe 4.2416 -1.4770 -6.5986 0
M  V30 63 Ag 5.8175 -1.5271 -4.8242 0
M  V30 64 Ag 3.0061 3.8289 3.1173 0
M  V30 65 Fe 1.9763 2.6185 4.8771 0
M  V30 66 Ag 0.7553 1.2918 6.4173 0
M  V30 67 Ag 4.1015 2.8319 1.1956 0
M  V30 68 Fe 5.2341 1.2296 -0.1324 0
M  V30 69 Ag 6.2560 -0.3403 -1.5830 0
M  V30 70 Ag -6.2274 -2.7838 0.4018 0
M  V30 71 Fe -4.3480 -3.6600 -0.7478 0
M  V30 72 Ag -2.3448 -4.4262 -1.7586 0
M  V30 73 Ba -1.3230 -5.1273 2.5475 0
M  V30 74 Ga -0.9538 -5.1779 1.1143 0
M  V30 75 Ba -0.5473 -5.3268 -0.3019 0
M  V30 76 Ba -2.7467 -3.2053 5.1010 0
M  V30 77 Ga -2.3730 -2.0369 5.9094 0
M  V30 78 Ba -1.9688 -0.8649 6.6975 0
M  V30 79 Ba -6.5382 -0.6122 3.1505 0
M  V30 80 Ga -5.9225 0.6629 3.6475 0
M  V30 81 Ba -5.3970 1.9211 4.2742 0
M  V30 82 Ba 0.8583 1.7647 -7.3615 0
M  V30 83 Ga 1.5515 2.6829 -6.4038 0
M  V30 84 Ba 2.2206 3.6208 -5.4482 0
M  V30 85 Ba -0.4646 -3.4743 4.2562 0
M  V30 86 Ga -0.0573 -2.3028 5.0635 0
M  V30 87 Ba 0.3279 -1.1254 5.8728 0
M  V30 88 Ba -6.1354 -3.1960 2.6546 0
M  V30 89 Ga -4.9101 -3.8928 3.0937 0
M  V30 90 Ba -3.6898 -4.5959 3.5366 0
M  V30 91 Ba 6.6929 0.6906 -3.4991 0
M  V30 92 Ga 6.0245 1.9963 -3.7032 0
M  V30 93 Ba 5.3429 3.2945 -3.9118 0
M  V30 94 Ba 2.2076 3.6046 -0.2320 0
M  V30 95 Ga 2.5648 3.5258 -1.6651 0
M  V30 96 Ba 2.7346 3.3760 -3.1267 0
M  V30 97 Ba -1.6135 1.5073 7.1063 0
M  V30 98 Ga -2.6101 2.3100 6.3706 0
M  V30 99 Ba -3.6083 3.1156 5.6405 0
M  V30 END ATOM
M  V30 BEGIN BOND
M  V30 1 1 1 2
M  V30 2 1 1 3
M  V30 3 1 1 4
M  V30 4 1 1 5
M  V30 5 1 6 7
M  V30 6 1 6 8
M  V30 7 1 6 9
M  V30 8 1 6 10
M  V30 9 1 11 12
M  V30 10 1 11 13
M  V30 11 1 11 14
M  V30 12 1 11 15
M  V30 13 1 16 17
M  V30 14 1 16 18
M  V30 15 1 16 19
M  V30 16 1 16 20
M  V30 17 1 21 22
M  V30 18 1 21 23
M  V30 19 1 21 24
M  V30 20 1 21 25
M  V30 21 1 26 27
M  V30 22 1 26 28
M  V30 23 1 26 29
M  V30 24 1 26 30
M  V30 25 1 31 32
M  V30 26 1 31 33
M  V30 27 1 31 34
M  V30 28 1 31 35
M  V30 29 1 36 37
M  V30 30 1 36 38
M  V30 31 1 36 39
M  V30 32 1 36 40
M  V30 33 1 41 42
M  V30 34 1 41 43
M  V30 35 1 41 44
M  V30 36 1 41 45
M  V30 37 1 46 47
M  V30 38 1 47 48
M  V30 39 1 49 50
M  V30 40 1 50 51
M  V30 41 1 52 53
M  V30 42 1 53 54
M  V30 43 1 55 56
M  V30 44 1 56 57
M  V30 45 1 58 59
M  V30 46 1 59 60
M  V30 47 1 61 62
M  V30 48 1 62 63
M  V30 49 1 64 65
M  V30 50 1 65 66
M  V30 51 1 67 68
M  V30 52 1 68 69
M  V30 53 1 70 71
M  V30 54 1 71 72
M  V30 55 1 73 74
M  V30 56 1 74 75
M  V30 57 1 76 77
M  V30 58 1 77 78
M  V30 59 1 79 80
M  V30 60 1 80 81
M  V30 61 1 82 83
M  V30 62 1 83 84
M  V30 63 1 85 86
M  V30 64 1 86 87
M  V30 65 1 88 89
M  V30 66 1 89 90
M  V30 67 1 91 92
M  V30 68 1 92 93
M  V30 69 1 94 95
M  V30 70 1 95 96
M  V30 71 1 97 98
M  V30 72 1 98 99
M  V30 73 1 2 49
M  V30 74 1 3 94
M  V30 75 1 4 64
M  V30 76 1 5 67
M  V30 77 1 7 46
M  V30 78 1 8 82
M  V30 79 1 9 61
M  V30 80 1 10 55
M  V30 81 1 12 58
M  V30 82 1 13 70
M  V30 83 1 14 88
M  V30 84 1 15 79
M  V30 85 1 17 90
M  V30 86 1 18 76
M  V30 87 1 19 73
M  V30 88 1 20 85
M  V30 89 1 22 48
M  V30 90 1 23 72
M  V30 91 1 24 75
M  V30 92 1 25 52
M  V30 93 1 27 78
M  V30 94 1 28 97
M  V30 95 1 29 66
M  V30 96 1 30 87
M  V30 97 1 32 51
M  V30 98 1 33 99
M  V30 99 1 34 81
M  V30 100 1 35 60
M  V30 101 1 37 54
M  V30 102 1 38 91
M  V30 103 1 39 63
M  V30 104 1 40 69
M  V30 105 1 42 84
M  V30 106 1 43 96
M  V30 107 1 44 93
M  V30 108 1 45 57
M  V30 END BOND
M  V30 END CTAB
M  END

$$$$
