
     RDKit          3D

  0  0  0  0  0  0  0  0  0  0999 V3000
M  V30 BEGIN CTAB
M  V30 COUNTS 99 108 0 0 0
M  V30 BEGIN ATOM
M  V30 1 Pd 3.3239 0.2290 1.3944 0
M  V30 2 Pb 4.1314 -0.3408 1.5572 0
M  V30 3 Pb 2.5227 0.7467 1.0899 0
M  V30 4 Pb 3.8541 0.7456 0.7277 0
M  V30 5 Pb 2.7729 -0.3224 2.0291 0
M  V30 6 Pd -2.1128 7.2040 1.8488 0
M  V30 7 Pb -2.8972 6.5994 1.7044 0
M  V30 8 Pb -1.2859 7.7548 1.9779 0
M  V30 9 Pb -2.1519 6.9762 2.8199 0
M  V30 10 Pb -1.9962 7.3183 0.8635 0
M  V30 11 Pd -2.0695 -6.5242 -0.7262 0
M  V30 12 Pb -1.3104 -6.5000 -0.0793 0
M  V30 13 Pb -2.7094 -6.2850 -0.0026 0
M  V30 14 Pb -2.8262 -6.4537 -1.3747 0
M  V30 15 Pb -1.3898 -6.6545 -1.4484 0
M  V30 16 Pd -3.5387 -2.3023 -3.3498 0
M  V30 17 Pb -4.0017 -3.1808 -3.2234 0
M  V30 18 Pb -3.0443 -1.4530 -3.5338 0
M  V30 19 Pb -4.2506 -1.8119 -2.8366 0
M  V30 20 Pb -2.8189 -2.7671 -3.8689 0
M  V30 21 Pd -4.8785 -0.1155 1.8173 0
M  V30 22 Pb -4.9362 0.8819 1.7309 0
M  V30 23 Pb -4.8718 -1.1080 1.9161 0
M  V30 24 Pb -5.1902 -0.2090 0.8658 0
M  V30 25 Pb -4.5902 -0.0563 2.7771 0
M  V30 26 Pd 3.3325 -0.9403 -5.2505 0
M  V30 27 Pb 2.5018 -0.3848 -5.2064 0
M  V30 28 Pb 4.1468 -1.5157 -5.1676 0
M  V30 29 Pb 3.8657 -0.1842 -4.8842 0
M  V30 30 Pb 2.7458 -1.7108 -5.4972 0
M  V30 31 Pd 4.6869 -4.0418 -1.2402 0
M  V30 32 Pb 5.2164 -3.4905 -0.5897 0
M  V30 33 Pb 5.2023 -3.7175 -2.0371 0
M  V30 34 Pb 4.1038 -4.5876 -1.8446 0
M  V30 35 Pb 4.1488 -4.4016 -0.4807 0
M  V30 36 Pd -0.4689 1.0260 5.1797 0
M  V30 37 Pb -1.3902 0.6383 5.2438 0
M  V30 38 Pb 0.4281 1.4461 5.0692 0
M  V30 39 Pb -0.8339 1.9097 5.4723 0
M  V30 40 Pb -0.0792 0.1744 4.8281 0
M  V30 41 Pd 1.8268 5.4968 0.2877 0
M  V30 42 Pb 1.9528 6.4201 0.6446 0
M  V30 43 Pb 1.5514 4.5639 0.0505 0
M  V30 44 Pb 2.3609 5.1151 1.0364 0
M  V30 45 Pb 1.2158 5.8793 -0.4056 0
M  V30 46 Ag -3.4653 6.1169 1.6125 0
M  V30 47 Fe -4.2298 3.8661 1.6330 0
M  V30 48 Ag -5.0225 1.6250 1.6465 0
M  V30 49 Ag -2.6088 -0.8757 -3.7325 0
M  V30 50 Fe -0.4088 -0.3161 -4.4313 0
M  V30 51 Ag 1.8510 -0.0261 -5.1027 0
M  V30 52 Ag -0.8139 -6.6785 -1.9290 0
M  V30 53 Fe 1.4145 -5.9032 -2.2128 0
M  V30 54 Ag 3.6123 -4.9998 -2.2363 0
M  V30 55 Ag -0.7056 -6.4177 0.3522 0
M  V30 56 Fe 1.5198 -5.5978 0.3401 0
M  V30 57 Ag 3.6961 -4.7074 0.0297 0
M  V30 58 Ag -2.2523 -3.0646 -4.2631 0
M  V30 59 Fe -0.0128 -2.7702 -5.0001 0
M  V30 60 Ag 2.2243 -2.2395 -5.5986 0
M  V30 61 Ag -2.1548 6.6974 3.5143 0
M  V30 62 Fe -1.6624 4.7060 4.7083 0
M  V30 63 Ag -1.0914 2.5954 5.6325 0
M  V30 64 Ag 4.2036 1.0795 0.1604 0
M  V30 65 Fe 4.3838 0.9139 -2.1940 0
M  V30 66 Ag 4.2208 0.3313 -4.4822 0
M  V30 67 Ag 1.0714 1.7915 4.9162 0
M  V30 68 Fe 2.0550 3.2861 3.3636 0
M  V30 69 Ag 2.6633 4.7811 1.6299 0
M  V30 70 Ag -3.1763 -6.0133 0.5101 0
M  V30 71 Fe -4.0783 -3.9780 1.3239 0
M  V30 72 Ag -4.8735 -1.8506 2.0026 0
M  V30 73 Ba 4.7487 -0.7697 1.5867 0
M  V30 74 Ga 5.1802 -1.9347 0.7825 0
M  V30 75 Ba 5.5653 -3.0966 -0.0495 0
M  V30 76 Ba -4.4040 -0.0783 3.5074 0
M  V30 77 Ga -3.2311 0.1679 4.3738 0
M  V30 78 Ba -2.0994 0.3951 5.2985 0
M  V30 79 Ba -4.7950 -1.4276 -2.4814 0
M  V30 80 Ga -5.0821 -0.8699 -1.1390 0
M  V30 81 Ba -5.4621 -0.2761 0.1643 0
M  V30 82 Ba -1.8142 7.3389 0.1376 0
M  V30 83 Ga -0.5812 6.7968 -0.4601 0
M  V30 84 Ba 0.7060 6.1972 -0.8546 0
M  V30 85 Ba -0.6311 8.1219 2.0182 0
M  V30 86 Ga 0.6917 7.6994 1.5204 0
M  V30 87 Ba 1.9159 7.0972 0.9604 0
M  V30 88 Ba -3.4159 -6.3335 -1.8212 0
M  V30 89 Ga -3.8870 -5.1154 -2.5079 0
M  V30 90 Ba -4.3064 -3.8653 -3.1703 0
M  V30 91 Ba 2.3609 -0.7632 2.4834 0
M  V30 92 Ga 1.3094 -0.5951 3.5104 0
M  V30 93 Ba 0.2582 -0.4305 4.5382 0
M  V30 94 Ba 1.9536 1.1091 0.7574 0
M  V30 95 Ga 1.6347 2.4987 0.3678 0
M  V30 96 Ba 1.2732 3.8717 -0.0431 0
M  V30 97 Ba 4.7673 -1.9144 -5.0265 0
M  V30 98 Ga 5.1807 -2.7219 -3.8592 0
M  V30 99 Ba 5.5553 -3.5196 -2.6723 0
M  V30 END ATOM
M  V30 BEGIN BOND
M  V30 1 1 1 2
M  V30 2 1 1 3
M  V30 3 1 1 4
M  V30 4 1 1 5
M  V30 5 1 6 7
M  V30 6 1 6 8
M  V30 7 1 6 9
M  V30 8 1 6 10
M  V30 9 1 11 12
M  V30 10 1 11 13
M  V30 11 1 11 14
M  V30 12 1 11 15
M  V30 13 1 16 17
M  V30 14 1 16 18
M  V30 15 1 16 19
M  V30 16 1 16 20
M  V30 17 1 21 22
M  V30 18 1 21 23
M  V30 19 1 21 24
M  V30 20 1 21 25
M  V30 21 1 26 27
M  V30 22 1 26 28
M  V30 23 1 26 29
M  V30 24 1 26 30
M  V30 25 1 31 32
M  V30 26 1 31 33
M  V30 27 1 31 34
M  V30 28 1 31 35
M  V30 29 1 36 37
M  V30 30 1 36 38
M  V30 31 1 36 39
M  V30 32 1 36 40
M  V30 33 1 41 42
M  V30 34 1 41 43
M  V30 35 1 41 44
M  V30 36 1 41 45
M  V30 37 1 46 47
M  V30 38 1 47 48
M  V30 39 1 49 50
M  V30 40 1 50 51
M  V30 41 1 52 53
M  V30 42 1 53 54
M  V30 43 1 55 56
M  V30 44 1 56 57
M  V30 45 1 58 59
M  V30 46 1 59 60
M  V30 47 1 61 62
M  V30 48 1 62 63
M  V30 49 1 64 65
M  V30 50 1 65 66
M  V30 51 1 67 68
M  V30 52 1 68 69
M  V30 53 1 70 71
M  V30 54 1 71 72
M  V30 55 1 73 74
M  V30 56 1 74 75
M  V30 57 1 76 77
M  V30 58 1 77 78
M  V30 59 1 79 80
M  V30 60 1 80 81
M  V30 61 1 82 83
M  V30 62 1 83 84
M  V30 63 1 85 86
M  V30 64 1 86 87
M  V30 65 1 88 89
M  V30 66 1 89 90
M  V30 67 1 91 92
M  V30 68 1 92 93
M  V30 69 1 94 95
M  V30 70 1 95 96
M  V30 71 1 97 98
M  V30 72 1 98 99
M  V30 73 1 2 73
M  V30 74 1 3 94
M  V30 75 1 4 64
M  V30 76 1 5 91
M  V30 77 1 7 46
M  V30 78 1 8 85
M  V30 79 1 9 61
M  V30 80 1 10 82
M  V30 81 1 12 55
M  V30 82 1 13 70
M  V30 83 1 14 88
M  V30 84 1 15 52
M  V30 85 1 17 90
M  V30 86 1 18 49
M  V30 87 1 19 79
M  V30 88 1 20 58
M  V30 89 1 22 48
M  V30 90 1 23 72
M  V30 91 1 24 81
M  V30 92 1 25 76
M  V30 93 1 27 51
M  V30 94 1 28 97
M  V30 95 1 29 66
M  V30 96 1 30 60
M  V30 97 1 32 75
M  V30 98 1 33 99
M  V30 99 1 34 54
M  V30 100 1 35 57
M  V30 101 1 37 78
M  V30 102 1 38 67
M  V30 103 1 39 63
M  V30 104 1 40 93
M  V30 105 1 42 87
M  V30 106 1 43 96
M  V30 107 1 44 69
M  V30 108 1 45 84
M  V30 END BOND
M  V30 END CTAB
M  END

$$$$
