
     RDKit          3D

  0  0  0  0  0  0  0  0  0  0999 V3000
M  V30 BEGIN CTAB
M  V30 COUNTS 99 108 0 0 0
M  V30 BEGIN ATOM
M  V30 1 Pd -4.2468 4.7824 -0.6402 0
M  V30 2 Pb -3.5245 4.4666 -0.0293 0
M  V30 3 Pb -4.9112 4.9393 -1.3872 0
M  V30 4 Pb -3.5966 5.3585 -1.1277 0
M  V30 5 Pb -4.8835 4.1996 -0.1357 0
M  V30 6 Pd -4.6049 2.9269 -5.8567 0
M  V30 7 Pb -5.2549 2.1920 -5.6793 0
M  V30 8 Pb -3.9344 3.6496 -5.9991 0
M  V30 9 Pb -5.1379 3.5555 -5.2651 0
M  V30 10 Pb -4.0080 2.2609 -6.3067 0
M  V30 11 Pd 3.9749 2.5906 2.7693 0
M  V30 12 Pb 4.8746 2.2258 2.5462 0
M  V30 13 Pb 3.0406 2.9023 2.9381 0
M  V30 14 Pb 4.0619 2.2905 3.7211 0
M  V30 15 Pb 3.8952 2.8511 1.8068 0
M  V30 16 Pd 3.4872 -2.0651 6.2043 0
M  V30 17 Pb 2.5015 -1.9236 6.0286 0
M  V30 18 Pb 4.4335 -2.3380 6.0583 0
M  V30 19 Pb 3.2963 -3.0185 6.4130 0
M  V30 20 Pb 3.6977 -1.0883 6.0968 0
M  V30 21 Pd 1.6972 0.2683 -1.5176 0
M  V30 22 Pb 2.3740 -0.2009 -2.0879 0
M  V30 23 Pb 1.0927 -0.5165 -1.6708 0
M  V30 24 Pb 2.2972 1.0594 -1.3938 0
M  V30 25 Pb 1.0524 0.7315 -0.9069 0
M  V30 26 Pd -3.3527 -1.4555 -3.7328 0
M  V30 27 Pb -4.2586 -1.1741 -4.0456 0
M  V30 28 Pb -3.7501 -1.7893 -2.8806 0
M  V30 29 Pb -2.9751 -1.0941 -4.5890 0
M  V30 30 Pb -2.4581 -1.7518 -3.3909 0
M  V30 31 Pd 5.3042 -3.4524 -0.3503 0
M  V30 32 Pb 5.0260 -3.0502 -1.2245 0
M  V30 33 Pb 4.5788 -4.1397 -0.4488 0
M  V30 34 Pb 5.9570 -2.7135 -0.2080 0
M  V30 35 Pb 5.5984 -3.7672 0.5550 0
M  V30 36 Pd -2.9785 0.3913 1.2283 0
M  V30 37 Pb -2.0900 0.0223 0.9509 0
M  V30 38 Pb -2.4972 1.1513 1.6642 0
M  V30 39 Pb -3.8624 0.8182 1.4160 0
M  V30 40 Pb -3.4504 -0.3867 0.8154 0
M  V30 41 Pd 0.5849 -3.8780 1.9400 0
M  V30 42 Pb 0.5925 -4.7252 2.4622 0
M  V30 43 Pb 0.3898 -3.3513 2.7908 0
M  V30 44 Pb 0.9366 -4.3839 1.1496 0
M  V30 45 Pb 0.5546 -3.0329 1.4103 0
M  V30 46 Ag 3.0966 -3.7294 6.4665 0
M  V30 47 Fe 1.8575 -5.0731 4.9904 0
M  V30 48 Ag 0.6902 -5.2618 2.9611 0
M  V30 49 Ag -3.1606 5.7067 -1.6165 0
M  V30 50 Fe -2.9152 5.3507 -3.9314 0
M  V30 51 Ag -3.4553 4.2091 -5.9185 0
M  V30 52 Ag 5.4916 1.8960 2.2879 0
M  V30 53 Fe 6.1529 -0.0631 1.1320 0
M  V30 54 Ag 6.3744 -2.1310 -0.0021 0
M  V30 55 Ag -2.9739 4.1230 0.3426 0
M  V30 56 Fe -1.1537 2.6303 0.0256 0
M  V30 57 Ag 0.6315 1.1303 -0.4281 0
M  V30 58 Ag 5.0348 -2.6605 5.7531 0
M  V30 59 Fe 5.6296 -3.3381 3.5546 0
M  V30 60 Ag 5.8754 -3.8626 1.2494 0
M  V30 61 Ag 2.3204 3.0918 3.0200 0
M  V30 62 Fe 0.0785 2.4676 2.5498 0
M  V30 63 Ag -2.0955 1.6916 1.9939 0
M  V30 64 Ba 4.1333 2.0728 4.4370 0
M  V30 65 Ga 3.9845 0.8278 5.2221 0
M  V30 66 Ba 3.8673 -0.3527 6.1057 0
M  V30 67 Ba -1.4154 -0.1965 0.7025 0
M  V30 68 Ga -0.4642 -1.3097 0.8775 0
M  V30 69 Ba 0.5214 -2.3979 1.0164 0
M  V30 70 Ba -3.5424 1.7284 -6.5611 0
M  V30 71 Ga -3.1168 0.4554 -5.9400 0
M  V30 72 Ba -2.7492 -0.7965 -5.2432 0
M  V30 73 Ba -5.3738 5.0250 -1.9880 0
M  V30 74 Ga -5.4297 4.5090 -3.3888 0
M  V30 75 Ba -5.5261 4.0189 -4.7965 0
M  V30 76 Ba 3.9955 -4.6071 -0.5527 0
M  V30 77 Ga 2.6307 -4.7049 0.0130 0
M  V30 78 Ba 1.2740 -4.7745 0.6017 0
M  V30 79 Ba 0.6986 -1.1383 -1.8269 0
M  V30 80 Ga -0.5784 -1.5263 -2.4627 0
M  V30 81 Ba -1.8274 -2.0206 -3.0803 0
M  V30 82 Ba -5.3058 3.7409 0.2807 0
M  V30 83 Ga -4.9715 2.4506 0.9111 0
M  V30 84 Ba -4.5195 1.1713 1.4883 0
M  V30 85 Ba -5.6975 1.6103 -5.5256 0
M  V30 86 Ga -5.3669 0.3159 -4.9090 0
M  V30 87 Ba -4.9293 -0.9429 -4.2851 0
M  V30 88 Ba -4.0366 -2.0215 -2.2302 0
M  V30 89 Ga -3.9325 -1.5098 -0.8531 0
M  V30 90 Ba -3.8072 -0.9715 0.5120 0
M  V30 91 Ba 2.8687 -0.5878 -2.5012 0
M  V30 92 Ga 3.8491 -1.6506 -2.1963 0
M  V30 93 Ba 4.8219 -2.7121 -1.8642 0
M  V30 94 Ba 3.8681 3.0139 1.0747 0
M  V30 95 Ga 3.2911 2.3500 -0.1104 0
M  V30 96 Ba 2.7100 1.6776 -1.2888 0
M  V30 97 Ba 1.7736 -1.8902 5.7978 0
M  V30 98 Ga 1.0337 -2.4249 4.6095 0
M  V30 99 Ba 0.2654 -2.9462 3.4334 0
M  V30 END ATOM
M  V30 BEGIN BOND
M  V30 1 1 1 2
M  V30 2 1 1 3
M  V30 3 1 1 4
M  V30 4 1 1 5
M  V30 5 1 6 7
M  V30 6 1 6 8
M  V30 7 1 6 9
M  V30 8 1 6 10
M  V30 9 1 11 12
M  V30 10 1 11 13
M  V30 11 1 11 14
M  V30 12 1 11 15
M  V30 13 1 16 17
M  V30 14 1 16 18
M  V30 15 1 16 19
M  V30 16 1 16 20
M  V30 17 1 21 22
M  V30 18 1 21 23
M  V30 19 1 21 24
M  V30 20 1 21 25
M  V30 21 1 26 27
M  V30 22 1 26 28
M  V30 23 1 26 29
M  V30 24 1 26 30
M  V30 25 1 31 32
M  V30 26 1 31 33
M  V30 27 1 31 34
M  V30 28 1 31 35
M  V30 29 1 36 37
M  V30 30 1 36 38
M  V30 31 1 36 39
M  V30 32 1 36 40
M  V30 33 1 41 42
M  V30 34 1 41 43
M  V30 35 1 41 44
M  V30 36 1 41 45
M  V30 37 1 46 47
M  V30 38 1 47 48
M  V30 39 1 49 50
M  V30 40 1 50 51
M  V30 41 1 52 53
M  V30 42 1 53 54
M  V30 43 1 55 56
M  V30 44 1 56 57
M  V30 45 1 58 59
M  V30 46 1 59 60
M  V30 47 1 61 62
M  V30 48 1 62 63
M  V30 49 1 64 65
M  V30 50 1 65 66
M  V30 51 1 67 68
M  V30 52 1 68 69
M  V30 53 1 70 71
M  V30 54 1 71 72
M  V30 55 1 73 74
M  V30 56 1 74 75
M  V30 57 1 76 77
M  V30 58 1 77 78
M  V30 59 1 79 80
M  V30 60 1 80 81
M  V30 61 1 82 83
M  V30 62 1 83 84
M  V30 63 1 85 86
M  V30 64 1 86 87
M  V30 65 1 88 89
M  V30 66 1 89 90
M  V30 67 1 91 92
M  V30 68 1 92 93
M  V30 69 1 94 95
M  V30 70 1 95 96
M  V30 71 1 97 98
M  V30 72 1 98 99
M  V30 73 1 2 55
M  V30 74 1 3 73
M  V30 75 1 4 49
M  V30 76 1 5 82
M  V30 77 1 7 85
M  V30 78 1 8 51
M  V30 79 1 9 75
M  V30 80 1 10 70
M  V30 81 1 12 52
M  V30 82 1 13 61
M  V30 83 1 14 64
M  V30 84 1 15 94
M  V30 85 1 17 97
M  V30 86 1 18 58
M  V30 87 1 19 46
M  V30 88 1 20 66
M  V30 89 1 22 91
M  V30 90 1 23 79
M  V30 91 1 24 96
M  V30 92 1 25 57
M  V30 93 1 27 87
M  V30 94 1 28 88
M  V30 95 1 29 72
M  V30 96 1 30 81
M  V30 97 1 32 93
M  V30 98 1 33 76
M  V30 99 1 34 54
M  V30 100 1 35 60
M  V30 101 1 37 67
M  V30 102 1 38 63
M  V30 103 1 39 84
M  V30 104 1 40 90
M  V30 105 1 42 48
M  V30 106 1 43 99
M  V30 107 1 44 78
M  V30 108 1 45 69
M  V30 END BOND
M  V30 END CTAB
M  END

$$$$
