
     RDKit          3D

  0  0  0  0  0  0  0  0  0  0999 V3000
M  V30 BEGIN CTAB
M  V30 COUNTS 99 108 0 0 0
M  V30 BEGIN ATOM
M  V30 1 Pd -1.0688 -2.7191 -4.2155 0
M  V30 2 Pb -0.3142 -2.1491 -4.5465 0
M  V30 3 Pb -1.7694 -3.4042 -3.9951 0
M  V30 4 Pb -0.4238 -3.3548 -3.7878 0
M  V30 5 Pb -1.6985 -2.0573 -4.6432 0
M  V30 6 Pd -5.9069 -0.9672 3.2600 0
M  V30 7 Pb -5.5660 -0.1362 3.7000 0
M  V30 8 Pb -5.2230 -1.5469 3.6966 0
M  V30 9 Pb -6.5287 -0.4029 2.7218 0
M  V30 10 Pb -6.2772 -1.7993 2.8223 0
M  V30 11 Pd 4.8826 5.1778 0.8622 0
M  V30 12 Pb 5.5415 4.6674 0.2701 0
M  V30 13 Pb 4.1429 5.6087 1.3711 0
M  V30 14 Pb 5.2818 4.8401 1.7202 0
M  V30 15 Pb 4.4985 5.6046 0.0552 0
M  V30 16 Pd 4.4683 1.2129 4.8576 0
M  V30 17 Pb 4.9289 2.0938 4.7397 0
M  V30 18 Pb 4.0267 0.3124 4.8757 0
M  V30 19 Pb 3.6490 1.6404 5.2413 0
M  V30 20 Pb 5.2701 0.7548 4.4853 0
M  V30 21 Pd -2.2844 3.7528 3.0934 0
M  V30 22 Pb -3.0509 3.2021 3.4326 0
M  V30 23 Pb -1.5361 4.3750 2.8697 0
M  V30 24 Pb -1.8079 3.6017 3.9571 0
M  V30 25 Pb -2.6613 3.8673 2.1690 0
M  V30 26 Pd 4.9759 -4.2491 0.3706 0
M  V30 27 Pb 4.4249 -4.2316 1.2064 0
M  V30 28 Pb 5.5065 -4.0909 -0.4566 0
M  V30 29 Pb 4.2361 -4.6500 -0.1695 0
M  V30 30 Pb 5.6870 -3.7783 0.8839 0
M  V30 31 Pd 5.3376 1.7030 -3.9262 0
M  V30 32 Pb 4.7249 1.2150 -4.5457 0
M  V30 33 Pb 5.7777 0.8327 -3.7096 0
M  V30 34 Pb 4.9065 2.5500 -4.2065 0
M  V30 35 Pb 5.8540 2.1992 -3.1952 0
M  V30 36 Pd -5.3395 1.1227 -3.5225 0
M  V30 37 Pb -4.8150 1.8827 -3.1344 0
M  V30 38 Pb -5.8762 0.3399 -3.8215 0
M  V30 39 Pb -6.0312 1.3117 -2.8284 0
M  V30 40 Pb -4.6316 0.8538 -4.1828 0
M  V30 41 Pd -5.0624 -5.1289 -0.7166 0
M  V30 42 Pb -4.4034 -5.3364 0.0030 0
M  V30 43 Pb -4.4345 -5.3449 -1.4633 0
M  V30 44 Pb -5.7086 -4.8506 -1.4202 0
M  V30 45 Pb -5.6987 -4.8243 0.0039 0
M  V30 46 Ag 0.2510 -1.7734 -4.8716 0
M  V30 47 Fe 2.2313 -0.4608 -4.9018 0
M  V30 48 Ag 4.2096 0.8544 -4.9524 0
M  V30 49 Ag -2.8411 3.9647 1.4418 0
M  V30 50 Fe -3.6637 3.2109 -0.6603 0
M  V30 51 Ag -4.4947 2.4489 -2.7561 0
M  V30 52 Ag 3.0144 1.9257 5.5229 0
M  V30 53 Fe 0.8121 2.7210 5.1290 0
M  V30 54 Ag -1.3583 3.4850 4.5437 0
M  V30 55 Ag 3.7490 -0.3845 4.8064 0
M  V30 56 Fe 3.7981 -2.3191 3.4235 0
M  V30 57 Ag 4.0604 -4.0798 1.8461 0
M  V30 58 Ag 4.2400 5.8515 -0.5897 0
M  V30 59 Fe 4.1739 4.9215 -2.7451 0
M  V30 60 Ag 4.5930 3.2105 -4.2975 0
M  V30 61 Ag -4.7197 -2.0768 3.8377 0
M  V30 62 Fe -4.0368 -3.9065 2.5059 0
M  V30 63 Ag -4.0020 -5.3450 0.6303 0
M  V30 64 Ag 5.8166 0.3434 4.1901 0
M  V30 65 Fe 6.1798 -1.5029 2.7524 0
M  V30 66 Ag 6.1575 -3.3549 1.2766 0
M  V30 67 Ag -6.9230 0.0124 2.2421 0
M  V30 68 Fe -6.8689 0.7963 0.0048 0
M  V30 69 Ag -6.5081 1.4011 -2.2596 0
M  V30 70 Ag 0.0294 -3.8529 -3.4541 0
M  V30 71 Fe 1.8543 -4.3919 -2.0314 0
M  V30 72 Ag 3.6838 -4.9082 -0.6061 0
M  V30 73 Ag -6.2488 -0.2913 -3.9495 0
M  V30 74 Fe -6.3687 -2.5003 -3.1096 0
M  V30 75 Ag -6.1251 -4.5551 -1.9614 0
M  V30 76 Ag 5.8858 -3.8350 -1.0452 0
M  V30 77 Fe 6.0632 -1.8888 -2.3892 0
M  V30 78 Ag 6.0719 0.1528 -3.5972 0
M  V30 79 Ag 3.5211 5.8904 1.6725 0
M  V30 80 Fe 1.2721 5.4098 2.2556 0
M  V30 81 Ag -0.9692 4.8609 2.8078 0
M  V30 82 Ba -5.3740 0.5067 4.0356 0
M  V30 83 Ga -4.4516 1.6455 3.8483 0
M  V30 84 Ba -3.6018 2.8531 3.8097 0
M  V30 85 Ba -6.5878 -2.4298 2.5326 0
M  V30 86 Ga -6.3345 -3.4855 1.5172 0
M  V30 87 Ba -6.1873 -4.5919 0.5352 0
M  V30 88 Ba 6.0328 4.2915 -0.1927 0
M  V30 89 Ga 6.0653 3.4269 -1.4217 0
M  V30 90 Ba 6.2477 2.5590 -2.6352 0
M  V30 91 Ba 5.5726 4.6744 2.3970 0
M  V30 92 Ga 5.4195 3.6824 3.4839 0
M  V30 93 Ba 5.3163 2.7236 4.6060 0
M  V30 94 Ba -2.0811 -1.5131 -5.0084 0
M  V30 95 Ga -3.1209 -0.4751 -4.7993 0
M  V30 96 Ba -4.1469 0.5928 -4.6999 0
M  V30 97 Ba -2.1732 -4.0316 -3.8765 0
M  V30 98 Ga -3.1039 -4.6962 -2.9390 0
M  V30 99 Ba -4.0346 -5.4670 -2.0860 0
M  V30 END ATOM
M  V30 BEGIN BOND
M  V30 1 1 1 2
M  V30 2 1 1 3
M  V30 3 1 1 4
M  V30 4 1 1 5
M  V30 5 1 6 7
M  V30 6 1 6 8
M  V30 7 1 6 9
M  V30 8 1 6 10
M  V30 9 1 11 12
M  V30 10 1 11 13
M  V30 11 1 11 14
M  V30 12 1 11 15
M  V30 13 1 16 17
M  V30 14 1 16 18
M  V30 15 1 16 19
M  V30 16 1 16 20
M  V30 17 1 21 22
M  V30 18 1 21 23
M  V30 19 1 21 24
M  V30 20 1 21 25
M  V30 21 1 26 27
M  V30 22 1 26 28
M  V30 23 1 26 29
M  V30 24 1 26 30
M  V30 25 1 31 32
M  V30 26 1 31 33
M  V30 27 1 31 34
M  V30 28 1 31 35
M  V30 29 1 36 37
M  V30 30 1 36 38
M  V30 31 1 36 39
M  V30 32 1 36 40
M  V30 33 1 41 42
M  V30 34 1 41 43
M  V30 35 1 41 44
M  V30 36 1 41 45
M  V30 37 1 46 47
M  V30 38 1 47 48
M  V30 39 1 49 50
M  V30 40 1 50 51
M  V30 41 1 52 53
M  V30 42 1 53 54
M  V30 43 1 55 56
M  V30 44 1 56 57
M  V30 45 1 58 59
M  V30 46 1 59 60
M  V30 47 1 61 62
M  V30 48 1 62 63
M  V30 49 1 64 65
M  V30 50 1 65 66
M  V30 51 1 67 68
M  V30 52 1 68 69
M  V30 53 1 70 71
M  V30 54 1 71 72
M  V30 55 1 73 74
M  V30 56 1 74 75
M  V30 57 1 76 77
M  V30 58 1 77 78
M  V30 59 1 79 80
M  V30 60 1 80 81
M  V30 61 1 82 83
M  V30 62 1 83 84
M  V30 63 1 85 86
M  V30 64 1 86 87
M  V30 65 1 88 89
M  V30 66 1 89 90
M  V30 67 1 91 92
M  V30 68 1 92 93
M  V30 69 1 94 95
M  V30 70 1 95 96
M  V30 71 1 97 98
M  V30 72 1 98 99
M  V30 73 1 2 46
M  V30 74 1 3 97
M  V30 75 1 4 70
M  V30 76 1 5 94
M  V30 77 1 7 82
M  V30 78 1 8 61
M  V30 79 1 9 67
M  V30 80 1 10 85
M  V30 81 1 12 88
M  V30 82 1 13 79
M  V30 83 1 14 91
M  V30 84 1 15 58
M  V30 85 1 17 93
M  V30 86 1 18 55
M  V30 87 1 19 52
M  V30 88 1 20 64
M  V30 89 1 22 84
M  V30 90 1 23 81
M  V30 91 1 24 54
M  V30 92 1 25 49
M  V30 93 1 27 57
M  V30 94 1 28 76
M  V30 95 1 29 72
M  V30 96 1 30 66
M  V30 97 1 32 48
M  V30 98 1 33 78
M  V30 99 1 34 60
M  V30 100 1 35 90
M  V30 101 1 37 51
M  V30 102 1 38 73
M  V30 103 1 39 69
M  V30 104 1 40 96
M  V30 105 1 42 63
M  V30 106 1 43 99
M  V30 107 1 44 75
M  V30 108 1 45 87
M  V30 END BOND
M  V30 END CTAB
M  END

$$$$
