
     RDKit          3D

  0  0  0  0  0  0  0  0  0  0999 V3000
M  V30 BEGIN CTAB
M  V30 COUNTS 99 108 0 0 0
M  V30 BEGIN ATOM
M  V30 1 Pd -1.3756 5.6889 2.2230 0
M  V30 2 Pb -0.5074 5.2509 1.9806 0
M  V30 3 Pb -2.2361 6.1125 2.5068 0
M  V30 4 Pb -0.9011 6.2733 2.8825 0
M  V30 5 Pb -1.8816 5.1182 1.5762 0
M  V30 6 Pd -2.7141 6.1669 6.9095 0
M  V30 7 Pb -3.4116 5.5125 7.1992 0
M  V30 8 Pb -1.9750 6.7308 6.5456 0
M  V30 9 Pb -3.3040 6.5049 6.1780 0
M  V30 10 Pb -2.0923 5.7695 7.5806 0
M  V30 11 Pd 2.0051 -4.6909 -0.0260 0
M  V30 12 Pb 2.8267 -4.1218 -0.0207 0
M  V30 13 Pb 1.1290 -5.1625 -0.0708 0
M  V30 14 Pb 2.3602 -5.2637 -0.7667 0
M  V30 15 Pb 1.6173 -4.1522 0.7251 0
M  V30 16 Pd 3.3990 -5.5485 -7.4488 0
M  V30 17 Pb 3.3638 -4.9054 -8.2069 0
M  V30 18 Pb 4.2640 -5.1382 -7.1753 0
M  V30 19 Pb 2.4497 -5.7980 -7.6444 0
M  V30 20 Pb 3.4075 -6.0950 -6.6127 0
M  V30 21 Pd 1.0193 0.5793 2.1187 0
M  V30 22 Pb 0.7457 0.5351 1.1604 0
M  V30 23 Pb 1.2661 0.6134 3.0867 0
M  V30 24 Pb 0.8261 -0.3951 2.2436 0
M  V30 25 Pb 1.2364 1.5495 1.9875 0
M  V30 26 Pd -1.7312 1.3904 6.7799 0
M  V30 27 Pb -2.6248 1.7503 7.0528 0
M  V30 28 Pb -2.1783 0.7664 6.1354 0
M  V30 29 Pb -1.3080 2.0243 7.4266 0
M  V30 30 Pb -0.8187 1.0877 6.5011 0
M  V30 31 Pd 3.2098 -0.4163 -3.0081 0
M  V30 32 Pb 2.3839 -0.1521 -2.5113 0
M  V30 33 Pb 2.8123 0.0164 -3.8223 0
M  V30 34 Pb 3.6065 -0.8652 -2.2036 0
M  V30 35 Pb 3.9965 -0.7407 -3.5300 0
M  V30 36 Pd -3.8877 -1.2076 -0.3818 0
M  V30 37 Pb -3.8413 -1.2514 -1.3812 0
M  V30 38 Pb -3.7733 -2.1978 -0.3467 0
M  V30 39 Pb -3.9356 -0.2104 -0.4242 0
M  V30 40 Pb -3.9021 -1.1859 0.6201 0
M  V30 41 Pd 0.1084 -2.0193 -7.1641 0
M  V30 42 Pb -0.1491 -2.9598 -7.4039 0
M  V30 43 Pb 0.8406 -2.0829 -7.8412 0
M  V30 44 Pb 0.4457 -1.1199 -6.8795 0
M  V30 45 Pb -0.6809 -1.9305 -6.5520 0
M  V30 46 Ag 2.5914 -5.7183 -1.3187 0
M  V30 47 Fe 3.0199 -6.1213 -3.6203 0
M  V30 48 Ag 3.4215 -6.4274 -5.9415 0
M  V30 49 Ag -3.7990 -1.3054 -2.1294 0
M  V30 50 Fe -2.5132 -1.5753 -4.1109 0
M  V30 51 Ag -1.3054 -1.8417 -6.1411 0
M  V30 52 Ag -2.3000 4.7100 1.1062 0
M  V30 53 Fe -3.1146 2.6222 0.3209 0
M  V30 54 Ag -3.9322 0.5376 -0.4697 0
M  V30 55 Ag -2.5505 0.3066 5.6707 0
M  V30 56 Fe -3.2003 -0.4185 3.5017 0
M  V30 57 Ag -3.9008 -1.2098 1.3720 0
M  V30 58 Ag 4.8072 -4.7055 -6.9055 0
M  V30 59 Fe 4.9251 -2.8539 -5.4317 0
M  V30 60 Ag 4.5433 -1.0683 -3.9210 0
M  V30 61 Ag 0.4175 -5.3815 -0.1021 0
M  V30 62 Fe -1.7164 -4.3586 -0.2155 0
M  V30 63 Ag -3.5985 -2.9235 -0.3240 0
M  V30 64 Ba -1.6278 5.4037 8.0379 0
M  V30 65 Ga -1.2800 3.9732 8.0284 0
M  V30 66 Ba -1.0250 2.5285 7.9034 0
M  V30 67 Ba -2.8667 6.4233 2.7685 0
M  V30 68 Ga -3.3385 6.6077 4.1527 0
M  V30 69 Ba -3.6918 6.7296 5.5784 0
M  V30 70 Ba 2.4905 0.3531 -4.4154 0
M  V30 71 Ga 1.6147 -0.0582 -5.5345 0
M  V30 72 Ba 0.7393 -0.4646 -6.6557 0
M  V30 73 Ba 1.7117 -5.8694 -7.7680 0
M  V30 74 Ga 0.6693 -4.8214 -7.6908 0
M  V30 75 Ba -0.2709 -3.6836 -7.5790 0
M  V30 76 Ba -0.5920 6.7192 3.4012 0
M  V30 77 Ga -0.9535 6.9534 4.8111 0
M  V30 78 Ba -1.4167 7.0931 6.2036 0
M  V30 79 Ba 1.4302 0.5891 3.8178 0
M  V30 80 Ga 0.6526 0.7520 5.0614 0
M  V30 81 Ba -0.1131 0.9113 6.3129 0
M  V30 82 Ba -3.8787 4.9566 7.3853 0
M  V30 83 Ga -3.6390 3.5012 7.3463 0
M  V30 84 Ba -3.2695 2.0750 7.2611 0
M  V30 85 Ba 3.4005 -3.6390 -0.0232 0
M  V30 86 Ga 3.6797 -2.4287 -0.8229 0
M  V30 87 Ba 3.9429 -1.2201 -1.6307 0
M  V30 88 Ba 0.5268 0.5232 0.4458 0
M  V30 89 Ga 1.1599 0.2709 -0.8602 0
M  V30 90 Ba 1.7282 0.0316 -2.1980 0
M  V30 91 Ba 1.2763 -3.8027 1.2975 0
M  V30 92 Ga 1.0121 -2.4387 1.7990 0
M  V30 93 Ba 0.6924 -1.1206 2.3844 0
M  V30 94 Ba 0.1603 4.9405 1.8273 0
M  V30 95 Ga 0.7607 3.5897 1.8480 0
M  V30 96 Ba 1.4196 2.2664 1.8490 0
M  V30 97 Ba 3.2940 -4.3516 -8.6996 0
M  V30 98 Ga 2.3550 -3.2247 -8.6069 0
M  V30 99 Ba 1.3613 -2.1666 -8.3736 0
M  V30 END ATOM
M  V30 BEGIN BOND
M  V30 1 1 1 2
M  V30 2 1 1 3
M  V30 3 1 1 4
M  V30 4 1 1 5
M  V30 5 1 6 7
M  V30 6 1 6 8
M  V30 7 1 6 9
M  V30 8 1 6 10
M  V30 9 1 11 12
M  V30 10 1 11 13
M  V30 11 1 11 14
M  V30 12 1 11 15
M  V30 13 1 16 17
M  V30 14 1 16 18
M  V30 15 1 16 19
M  V30 16 1 16 20
M  V30 17 1 21 22
M  V30 18 1 21 23
M  V30 19 1 21 24
M  V30 20 1 21 25
M  V30 21 1 26 27
M  V30 22 1 26 28
M  V30 23 1 26 29
M  V30 24 1 26 30
M  V30 25 1 31 32
M  V30 26 1 31 33
M  V30 27 1 31 34
M  V30 28 1 31 35
M  V30 29 1 36 37
M  V30 30 1 36 38
M  V30 31 1 36 39
M  V30 32 1 36 40
M  V30 33 1 41 42
M  V30 34 1 41 43
M  V30 35 1 41 44
M  V30 36 1 41 45
M  V30 37 1 46 47
M  V30 38 1 47 48
M  V30 39 1 49 50
M  V30 40 1 50 51
M  V30 41 1 52 53
M  V30 42 1 53 54
M  V30 43 1 55 56
M  V30 44 1 56 57
M  V30 45 1 58 59
M  V30 46 1 59 60
M  V30 47 1 61 62
M  V30 48 1 62 63
M  V30 49 1 64 65
M  V30 50 1 65 66
M  V30 51 1 67 68
M  V30 52 1 68 69
M  V30 53 1 70 71
M  V30 54 1 71 72
M  V30 55 1 73 74
M  V30 56 1 74 75
M  V30 57 1 76 77
M  V30 58 1 77 78
M  V30 59 1 79 80
M  V30 60 1 80 81
M  V30 61 1 82 83
M  V30 62 1 83 84
M  V30 63 1 85 86
M  V30 64 1 86 87
M  V30 65 1 88 89
M  V30 66 1 89 90
M  V30 67 1 91 92
M  V30 68 1 92 93
M  V30 69 1 94 95
M  V30 70 1 95 96
M  V30 71 1 97 98
M  V30 72 1 98 99
M  V30 73 1 2 94
M  V30 74 1 3 67
M  V30 75 1 4 76
M  V30 76 1 5 52
M  V30 77 1 7 82
M  V30 78 1 8 78
M  V30 79 1 9 69
M  V30 80 1 10 64
M  V30 81 1 12 85
M  V30 82 1 13 61
M  V30 83 1 14 46
M  V30 84 1 15 91
M  V30 85 1 17 97
M  V30 86 1 18 58
M  V30 87 1 19 73
M  V30 88 1 20 48
M  V30 89 1 22 88
M  V30 90 1 23 79
M  V30 91 1 24 93
M  V30 92 1 25 96
M  V30 93 1 27 84
M  V30 94 1 28 55
M  V30 95 1 29 66
M  V30 96 1 30 81
M  V30 97 1 32 90
M  V30 98 1 33 70
M  V30 99 1 34 87
M  V30 100 1 35 60
M  V30 101 1 37 49
M  V30 102 1 38 63
M  V30 103 1 39 54
M  V30 104 1 40 57
M  V30 105 1 42 75
M  V30 106 1 43 99
M  V30 107 1 44 72
M  V30 108 1 45 51
M  V30 END BOND
M  V30 END CTAB
M  END

$$$$
