
     RDKit          3D

  0  0  0  0  0  0  0  0  0  0999 V3000
M  V30 BEGIN CTAB
M  V30 COUNTS 99 108 0 0 0
M  V30 BEGIN ATOM
M  V30 1 Pd 2.6714 -1.7163 -2.7245 0
M  V30 2 Pb 3.5704 -1.3886 -2.4420 0
M  V30 3 Pb 2.4824 -1.9681 -1.7741 0
M  V30 4 Pb 2.8641 -1.3993 -3.6550 0
M  V30 5 Pb 1.7510 -2.0056 -2.9924 0
M  V30 6 Pd -1.3656 -6.7249 4.0219 0
M  V30 7 Pb -1.7675 -5.8348 4.2502 0
M  V30 8 Pb -0.4432 -6.3806 4.2736 0
M  V30 9 Pb -2.2220 -7.0582 3.6236 0
M  V30 10 Pb -0.9720 -7.6294 3.8842 0
M  V30 11 Pd -0.6090 6.4357 2.6540 0
M  V30 12 Pb -0.0149 6.9398 2.0244 0
M  V30 13 Pb -1.1851 5.8775 3.2544 0
M  V30 14 Pb -1.4078 6.9506 2.3415 0
M  V30 15 Pb 0.2046 5.9220 2.9224 0
M  V30 16 Pd -3.3941 5.7561 -1.6206 0
M  V30 17 Pb -3.5154 6.4723 -0.9342 0
M  V30 18 Pb -3.2163 5.0130 -2.2666 0
M  V30 19 Pb -4.1949 5.2807 -1.2614 0
M  V30 20 Pb -2.5557 6.1838 -1.9549 0
M  V30 21 Pd -5.0712 0.2121 3.1195 0
M  V30 22 Pb -4.6073 -0.4656 3.6920 0
M  V30 23 Pb -4.6515 0.9660 3.6287 0
M  V30 24 Pb -5.5098 0.8809 2.5217 0
M  V30 25 Pb -5.4740 -0.5310 2.5880 0
M  V30 26 Pd 2.5707 3.1783 -4.9475 0
M  V30 27 Pb 1.6120 2.8936 -4.9237 0
M  V30 28 Pb 3.5148 3.5117 -4.9410 0
M  V30 29 Pb 2.8492 2.2707 -5.2710 0
M  V30 30 Pb 2.2622 4.0697 -4.6171 0
M  V30 31 Pd 5.4202 4.7094 -0.9192 0
M  V30 32 Pb 5.8351 3.8036 -0.9451 0
M  V30 33 Pb 5.6423 4.8071 -1.8898 0
M  V30 34 Pb 5.1287 4.5686 0.0261 0
M  V30 35 Pb 4.9085 5.5689 -0.8936 0
M  V30 36 Pd -3.3158 -5.9378 -0.8654 0
M  V30 37 Pb -4.1034 -5.3913 -0.5877 0
M  V30 38 Pb -2.4873 -6.4206 -1.1493 0
M  V30 39 Pb -3.5402 -6.5768 -0.1236 0
M  V30 40 Pb -3.0583 -5.2623 -1.5555 0
M  V30 41 Pd 3.2189 -5.8278 1.2795 0
M  V30 42 Pb 3.0552 -5.6834 2.2656 0
M  V30 43 Pb 2.9360 -4.8831 1.1069 0
M  V30 44 Pb 3.0752 -6.0721 0.3260 0
M  V30 45 Pb 3.4316 -6.7853 1.4552 0
M  V30 46 Ag -2.0490 -5.1789 4.4904 0
M  V30 47 Fe -3.1588 -3.0902 4.2500 0
M  V30 48 Ag -4.2561 -0.9862 4.1042 0
M  V30 49 Ag 4.2178 -1.0896 -2.2184 0
M  V30 50 Fe 5.2779 0.9342 -1.5843 0
M  V30 51 Ag 6.0614 3.0946 -1.0020 0
M  V30 52 Ag -5.7477 -1.0943 2.1783 0
M  V30 53 Fe -5.2780 -3.0368 0.8992 0
M  V30 54 Ag -4.6655 -4.9582 -0.3511 0
M  V30 55 Ag -4.7619 4.8977 -0.9591 0
M  V30 56 Fe -5.3674 3.1566 0.5349 0
M  V30 57 Ag -5.8028 1.3914 2.0595 0
M  V30 58 Ag -3.0027 4.4678 -2.7362 0
M  V30 59 Fe -1.1341 3.5206 -3.8563 0
M  V30 60 Ag 0.8764 2.7575 -4.8656 0
M  V30 61 Ag 0.8533 5.5684 3.0445 0
M  V30 62 Fe 2.8961 4.9600 2.0002 0
M  V30 63 Ag 4.8300 4.4865 0.7081 0
M  V30 64 Ag -0.5613 -8.2351 3.7609 0
M  V30 65 Fe 1.5491 -8.4723 2.7476 0
M  V30 66 Ag 3.3833 -7.4997 1.6424 0
M  V30 67 Ag 0.4801 7.2491 1.5506 0
M  V30 68 Fe 2.4691 6.8371 0.3164 0
M  V30 69 Ag 4.4510 6.1579 -0.8059 0
M  V30 70 Ag -1.8984 6.4214 -2.2231 0
M  V30 71 Fe 0.0891 5.6869 -3.2930 0
M  V30 72 Ag 1.9721 4.7103 -4.3584 0
M  V30 73 Ag 1.0494 -2.2060 -3.1715 0
M  V30 74 Fe -0.9003 -3.4645 -2.6631 0
M  V30 75 Ag -2.7884 -4.7704 -2.0526 0
M  V30 76 Ag -1.8213 -6.6529 -1.4063 0
M  V30 77 Fe 0.5234 -6.5885 -1.0445 0
M  V30 78 Ag 2.7609 -6.3310 -0.2984 0
M  V30 79 Ag -1.6085 5.4312 3.6867 0
M  V30 80 Fe -2.9784 3.4968 3.8674 0
M  V30 81 Ag -4.3392 1.5510 3.9833 0
M  V30 82 Ba 0.2618 -6.1256 4.4342 0
M  V30 83 Ga 1.5415 -5.8702 3.7041 0
M  V30 84 Ba 2.8290 -5.6090 2.9899 0
M  V30 85 Ba -1.9986 7.3298 2.0764 0
M  V30 86 Ga -2.8107 7.1853 0.8538 0
M  V30 87 Ba -3.5796 6.9815 -0.3881 0
M  V30 88 Ba -2.8135 -7.3374 3.2521 0
M  V30 89 Ga -3.2911 -7.1760 1.8602 0
M  V30 90 Ba -3.7509 -7.0014 0.4639 0
M  V30 91 Ba 3.0289 -1.1290 -4.3369 0
M  V30 92 Ga 3.0309 0.2248 -4.9310 0
M  V30 93 Ba 3.0300 1.5823 -5.5166 0
M  V30 94 Ba 2.3475 -2.1000 -1.0470 0
M  V30 95 Ga 2.5374 -3.1732 -0.0508 0
M  V30 96 Ba 2.6832 -4.1813 1.0181 0
M  V30 97 Ba 4.2027 3.8124 -4.9073 0
M  V30 98 Ga 5.0202 4.3222 -3.7880 0
M  V30 99 Ba 5.7881 4.8134 -2.6262 0
M  V30 END ATOM
M  V30 BEGIN BOND
M  V30 1 1 1 2
M  V30 2 1 1 3
M  V30 3 1 1 4
M  V30 4 1 1 5
M  V30 5 1 6 7
M  V30 6 1 6 8
M  V30 7 1 6 9
M  V30 8 1 6 10
M  V30 9 1 11 12
M  V30 10 1 11 13
M  V30 11 1 11 14
M  V30 12 1 11 15
M  V30 13 1 16 17
M  V30 14 1 16 18
M  V30 15 1 16 19
M  V30 16 1 16 20
M  V30 17 1 21 22
M  V30 18 1 21 23
M  V30 19 1 21 24
M  V30 20 1 21 25
M  V30 21 1 26 27
M  V30 22 1 26 28
M  V30 23 1 26 29
M  V30 24 1 26 30
M  V30 25 1 31 32
M  V30 26 1 31 33
M  V30 27 1 31 34
M  V30 28 1 31 35
M  V30 29 1 36 37
M  V30 30 1 36 38
M  V30 31 1 36 39
M  V30 32 1 36 40
M  V30 33 1 41 42
M  V30 34 1 41 43
M  V30 35 1 41 44
M  V30 36 1 41 45
M  V30 37 1 46 47
M  V30 38 1 47 48
M  V30 39 1 49 50
M  V30 40 1 50 51
M  V30 41 1 52 53
M  V30 42 1 53 54
M  V30 43 1 55 56
M  V30 44 1 56 57
M  V30 45 1 58 59
M  V30 46 1 59 60
M  V30 47 1 61 62
M  V30 48 1 62 63
M  V30 49 1 64 65
M  V30 50 1 65 66
M  V30 51 1 67 68
M  V30 52 1 68 69
M  V30 53 1 70 71
M  V30 54 1 71 72
M  V30 55 1 73 74
M  V30 56 1 74 75
M  V30 57 1 76 77
M  V30 58 1 77 78
M  V30 59 1 79 80
M  V30 60 1 80 81
M  V30 61 1 82 83
M  V30 62 1 83 84
M  V30 63 1 85 86
M  V30 64 1 86 87
M  V30 65 1 88 89
M  V30 66 1 89 90
M  V30 67 1 91 92
M  V30 68 1 92 93
M  V30 69 1 94 95
M  V30 70 1 95 96
M  V30 71 1 97 98
M  V30 72 1 98 99
M  V30 73 1 2 49
M  V30 74 1 3 94
M  V30 75 1 4 91
M  V30 76 1 5 73
M  V30 77 1 7 46
M  V30 78 1 8 82
M  V30 79 1 9 88
M  V30 80 1 10 64
M  V30 81 1 12 67
M  V30 82 1 13 79
M  V30 83 1 14 85
M  V30 84 1 15 61
M  V30 85 1 17 87
M  V30 86 1 18 58
M  V30 87 1 19 55
M  V30 88 1 20 70
M  V30 89 1 22 48
M  V30 90 1 23 81
M  V30 91 1 24 57
M  V30 92 1 25 52
M  V30 93 1 27 60
M  V30 94 1 28 97
M  V30 95 1 29 93
M  V30 96 1 30 72
M  V30 97 1 32 51
M  V30 98 1 33 99
M  V30 99 1 34 63
M  V30 100 1 35 69
M  V30 101 1 37 54
M  V30 102 1 38 76
M  V30 103 1 39 90
M  V30 104 1 40 75
M  V30 105 1 42 84
M  V30 106 1 43 96
M  V30 107 1 44 78
M  V30 108 1 45 66
M  V30 END BOND
M  V30 END CTAB
M  END

$$$$
