
     RDKit          3D

  0  0  0  0  0  0  0  0  0  0999 V3000
M  V30 BEGIN CTAB
M  V30 COUNTS 99 108 0 0 0
M  V30 BEGIN ATOM
M  V30 1 Pd -1.8717 -5.1173 -3.9687 0
M  V30 2 Pb -1.5223 -4.4657 -4.6399 0
M  V30 3 Pb -2.2715 -5.7828 -3.3490 0
M  V30 4 Pb -2.7077 -4.5441 -3.8898 0
M  V30 5 Pb -1.0368 -5.6694 -4.0029 0
M  V30 6 Pd -2.9221 0.1851 5.8548 0
M  V30 7 Pb -2.1658 0.6800 6.2656 0
M  V30 8 Pb -3.4183 1.0496 5.7682 0
M  V30 9 Pb -3.7075 -0.2877 5.4683 0
M  V30 10 Pb -2.3679 -0.6488 5.8165 0
M  V30 11 Pd 1.5181 4.7398 -1.8596 0
M  V30 12 Pb 0.9503 4.4288 -2.6198 0
M  V30 13 Pb 0.6987 5.1449 -1.4505 0
M  V30 14 Pb 2.3237 4.3540 -2.3160 0
M  V30 15 Pb 2.1043 5.0964 -1.1285 0
M  V30 16 Pd 2.1654 1.1148 -5.7371 0
M  V30 17 Pb 1.4527 1.7875 -5.5487 0
M  V30 18 Pb 1.4962 0.4949 -6.1379 0
M  V30 19 Pb 2.8299 1.6957 -5.2637 0
M  V30 20 Pb 2.8351 0.3945 -5.9106 0
M  V30 21 Pd 3.6010 -2.6893 2.9099 0
M  V30 22 Pb 3.4251 -3.5097 2.3192 0
M  V30 23 Pb 3.8063 -1.8386 3.3944 0
M  V30 24 Pb 4.4900 -2.5697 2.4929 0
M  V30 25 Pb 2.7296 -2.8092 3.3950 0
M  V30 26 Pd 2.3822 4.8400 3.7802 0
M  V30 27 Pb 3.0717 4.1218 3.8627 0
M  V30 28 Pb 1.6249 5.4920 3.7419 0
M  V30 29 Pb 2.0080 4.4837 4.6278 0
M  V30 30 Pb 2.7681 5.1877 2.9244 0
M  V30 31 Pd -5.8850 -2.3783 -0.5155 0
M  V30 32 Pb -5.7564 -1.3876 -0.6106 0
M  V30 33 Pb -5.9690 -3.3583 -0.3772 0
M  V30 34 Pb -5.5569 -2.5504 -1.4605 0
M  V30 35 Pb -6.1528 -2.2425 0.4320 0
M  V30 36 Pd 3.7544 -5.1326 -2.5781 0
M  V30 37 Pb 3.9495 -4.8294 -3.5079 0
M  V30 38 Pb 2.9519 -5.6479 -2.8912 0
M  V30 39 Pb 4.6047 -4.6919 -2.3313 0
M  V30 40 Pb 3.5418 -5.2870 -1.5880 0
M  V30 41 Pd -2.7698 4.3763 2.1486 0
M  V30 42 Pb -2.3820 4.8052 1.3301 0
M  V30 43 Pb -3.2161 4.0338 2.9837 0
M  V30 44 Pb -3.3229 3.7669 1.5706 0
M  V30 45 Pb -2.2261 5.0304 2.6795 0
M  V30 46 Ag -1.6165 1.0939 6.5455 0
M  V30 47 Fe 0.0913 2.6425 6.0163 0
M  V30 48 Ag 1.7247 4.1647 5.2354 0
M  V30 49 Ag -2.6736 -6.1808 -2.8723 0
M  V30 50 Fe -4.4120 -5.5752 -1.4040 0
M  V30 51 Ag -5.8970 -4.0933 -0.3349 0
M  V30 52 Ag 4.0420 -1.1773 3.6616 0
M  V30 53 Fe 3.8002 1.1787 3.8480 0
M  V30 54 Ag 3.5092 3.5310 4.0096 0
M  V30 55 Ag 5.1131 -2.5203 2.1046 0
M  V30 56 Fe 5.6778 -3.2734 -0.0446 0
M  V30 57 Ag 5.2047 -4.3523 -2.0739 0
M  V30 58 Ag -1.3234 -3.9617 -5.1571 0
M  V30 59 Fe -0.1635 -1.9985 -5.8121 0
M  V30 60 Ag 1.0298 -0.0310 -6.3894 0
M  V30 61 Ag 3.2440 -0.2197 -6.0392 0
M  V30 62 Fe 3.7714 -2.3821 -5.2164 0
M  V30 63 Ag 4.1166 -4.4688 -4.1410 0
M  V30 64 Ag -4.3104 -0.6046 5.1668 0
M  V30 65 Fe -5.3774 -1.4024 3.2092 0
M  V30 66 Ag -6.2896 -2.1549 1.1577 0
M  V30 67 Ag -1.9216 -1.2475 5.7243 0
M  V30 68 Fe 0.0837 -2.0963 4.7659 0
M  V30 69 Ag 2.0959 -2.9105 3.7918 0
M  V30 70 Ag -5.6540 -0.6417 -0.6455 0
M  V30 71 Fe -4.6788 1.3355 0.2522 0
M  V30 72 Ag -3.7386 3.3540 1.0933 0
M  V30 73 Ba -3.3283 -4.0950 -3.8789 0
M  V30 74 Ga -4.2942 -3.4187 -2.9619 0
M  V30 75 Ba -5.3334 -2.6843 -2.1796 0
M  V30 76 Ba -0.4314 -6.1147 -3.9950 0
M  V30 77 Ga 0.9829 -6.0432 -3.5698 0
M  V30 78 Ba 2.4080 -6.0843 -3.1781 0
M  V30 79 Ba 3.2938 -4.1429 1.8910 0
M  V30 80 Ga 3.3639 -4.6961 0.4931 0
M  V30 81 Ba 3.3746 -5.3956 -0.8396 0
M  V30 82 Ba 0.0612 5.4653 -1.2146 0
M  V30 83 Ga -1.0005 5.2761 -0.2048 0
M  V30 84 Ba -2.1276 5.2077 0.7477 0
M  V30 85 Ba 2.9214 4.0788 -2.6824 0
M  V30 86 Ga 3.1212 3.1044 -3.7762 0
M  V30 87 Ba 3.3036 2.1270 -4.8705 0
M  V30 88 Ba 1.0194 5.9349 3.7657 0
M  V30 89 Ga -0.3972 5.7489 3.3890 0
M  V30 90 Ba -1.8147 5.5646 3.0147 0
M  V30 91 Ba 2.5774 5.3866 -0.6200 0
M  V30 92 Ga 2.7874 5.3975 0.8423 0
M  V30 93 Ba 3.0675 5.4595 2.2916 0
M  V30 94 Ba -3.7664 1.7054 5.6554 0
M  V30 95 Ga -3.6569 2.7594 4.6214 0
M  V30 96 Ba -3.5885 3.8423 3.6142 0
M  V30 97 Ba 0.5338 4.2183 -3.2051 0
M  V30 98 Ga 0.7104 3.2498 -4.3000 0
M  V30 99 Ba 0.9093 2.2747 -5.3851 0
M  V30 END ATOM
M  V30 BEGIN BOND
M  V30 1 1 1 2
M  V30 2 1 1 3
M  V30 3 1 1 4
M  V30 4 1 1 5
M  V30 5 1 6 7
M  V30 6 1 6 8
M  V30 7 1 6 9
M  V30 8 1 6 10
M  V30 9 1 11 12
M  V30 10 1 11 13
M  V30 11 1 11 14
M  V30 12 1 11 15
M  V30 13 1 16 17
M  V30 14 1 16 18
M  V30 15 1 16 19
M  V30 16 1 16 20
M  V30 17 1 21 22
M  V30 18 1 21 23
M  V30 19 1 21 24
M  V30 20 1 21 25
M  V30 21 1 26 27
M  V30 22 1 26 28
M  V30 23 1 26 29
M  V30 24 1 26 30
M  V30 25 1 31 32
M  V30 26 1 31 33
M  V30 27 1 31 34
M  V30 28 1 31 35
M  V30 29 1 36 37
M  V30 30 1 36 38
M  V30 31 1 36 39
M  V30 32 1 36 40
M  V30 33 1 41 42
M  V30 34 1 41 43
M  V30 35 1 41 44
M  V30 36 1 41 45
M  V30 37 1 46 47
M  V30 38 1 47 48
M  V30 39 1 49 50
M  V30 40 1 50 51
M  V30 41 1 52 53
M  V30 42 1 53 54
M  V30 43 1 55 56
M  V30 44 1 56 57
M  V30 45 1 58 59
M  V30 46 1 59 60
M  V30 47 1 61 62
M  V30 48 1 62 63
M  V30 49 1 64 65
M  V30 50 1 65 66
M  V30 51 1 67 68
M  V30 52 1 68 69
M  V30 53 1 70 71
M  V30 54 1 71 72
M  V30 55 1 73 74
M  V30 56 1 74 75
M  V30 57 1 76 77
M  V30 58 1 77 78
M  V30 59 1 79 80
M  V30 60 1 80 81
M  V30 61 1 82 83
M  V30 62 1 83 84
M  V30 63 1 85 86
M  V30 64 1 86 87
M  V30 65 1 88 89
M  V30 66 1 89 90
M  V30 67 1 91 92
M  V30 68 1 92 93
M  V30 69 1 94 95
M  V30 70 1 95 96
M  V30 71 1 97 98
M  V30 72 1 98 99
M  V30 73 1 2 58
M  V30 74 1 3 49
M  V30 75 1 4 73
M  V30 76 1 5 76
M  V30 77 1 7 46
M  V30 78 1 8 94
M  V30 79 1 9 64
M  V30 80 1 10 67
M  V30 81 1 12 97
M  V30 82 1 13 82
M  V30 83 1 14 85
M  V30 84 1 15 91
M  V30 85 1 17 99
M  V30 86 1 18 60
M  V30 87 1 19 87
M  V30 88 1 20 61
M  V30 89 1 22 79
M  V30 90 1 23 52
M  V30 91 1 24 55
M  V30 92 1 25 69
M  V30 93 1 27 54
M  V30 94 1 28 88
M  V30 95 1 29 48
M  V30 96 1 30 93
M  V30 97 1 32 70
M  V30 98 1 33 51
M  V30 99 1 34 75
M  V30 100 1 35 66
M  V30 101 1 37 63
M  V30 102 1 38 78
M  V30 103 1 39 57
M  V30 104 1 40 81
M  V30 105 1 42 84
M  V30 106 1 43 96
M  V30 107 1 44 72
M  V30 108 1 45 90
M  V30 END BOND
M  V30 END CTAB
M  END

$$$$
