
     RDKit          3D

  0  0  0  0  0  0  0  0  0  0999 V3000
M  V30 BEGIN CTAB
M  V30 COUNTS 99 108 0 0 0
M  V30 BEGIN ATOM
M  V30 1 Pd 1.2318 1.4979 -0.9815 0
M  V30 2 Pb 0.2762 1.2046 -1.1313 0
M  V30 3 Pb 0.9167 2.4429 -0.9002 0
M  V30 4 Pb 2.0043 1.7939 -0.4252 0
M  V30 5 Pb 2.0335 1.8379 -1.4652 0
M  V30 6 Pd 1.0203 -7.6861 0.3784 0
M  V30 7 Pb 0.9069 -8.1829 1.2413 0
M  V30 8 Pb 1.9808 -7.9427 0.4234 0
M  V30 9 Pb 0.0490 -7.4509 0.3206 0
M  V30 10 Pb 1.2703 -6.9979 -0.3047 0
M  V30 11 Pd -5.2011 4.7224 -1.0549 0
M  V30 12 Pb -5.3078 4.7770 -0.0684 0
M  V30 13 Pb -5.1203 4.6628 -2.0553 0
M  V30 14 Pb -4.5649 5.4966 -0.9655 0
M  V30 15 Pb -5.7140 3.8655 -1.0207 0
M  V30 16 Pd 5.1658 -5.7592 5.0949 0
M  V30 17 Pb 5.5693 -6.3949 4.4470 0
M  V30 18 Pb 4.6863 -5.0795 5.6447 0
M  V30 19 Pb 5.6290 -4.9993 4.6386 0
M  V30 20 Pb 4.5169 -6.4857 5.3363 0
M  V30 21 Pd -0.3940 5.2114 3.9045 0
M  V30 22 Pb -1.3720 5.1979 4.0752 0
M  V30 23 Pb 0.5782 5.1795 3.6981 0
M  V30 24 Pb -0.3173 4.2990 4.3089 0
M  V30 25 Pb -0.5683 5.9671 3.2656 0
M  V30 26 Pd -1.5336 4.3615 -5.3614 0
M  V30 27 Pb -1.4859 5.2149 -4.8546 0
M  V30 28 Pb -1.4963 3.3816 -5.5810 0
M  V30 29 Pb -2.5255 4.3393 -5.2207 0
M  V30 30 Pb -0.5400 4.3857 -5.4499 0
M  V30 31 Pd 0.8249 -0.6174 -3.0809 0
M  V30 32 Pb 1.3265 -1.3728 -2.6582 0
M  V30 33 Pb 0.4471 -1.3284 -3.6593 0
M  V30 34 Pb 1.1664 0.0343 -2.3911 0
M  V30 35 Pb 0.2994 0.0459 -3.6498 0
M  V30 36 Pd 2.1717 0.2325 2.6666 0
M  V30 37 Pb 2.0634 0.5978 1.7299 0
M  V30 38 Pb 1.3976 0.7352 3.0710 0
M  V30 39 Pb 3.0135 -0.2470 2.4107 0
M  V30 40 Pb 2.2856 -0.1795 3.5702 0
M  V30 41 Pd -3.4059 -2.2496 -1.6121 0
M  V30 42 Pb -3.6583 -3.1664 -1.3121 0
M  V30 43 Pb -3.0417 -1.3315 -1.7970 0
M  V30 44 Pb -2.7714 -2.6717 -2.2555 0
M  V30 45 Pb -4.1587 -1.8024 -1.1327 0
M  V30 46 Ag 2.6981 -8.1077 0.5322 0
M  V30 47 Fe 4.4384 -7.6568 2.0670 0
M  V30 48 Ag 5.7198 -6.8498 3.8812 0
M  V30 49 Ag -5.3252 4.8255 0.6728 0
M  V30 50 Fe -3.8967 5.0054 2.5478 0
M  V30 51 Ag -2.1131 5.1747 4.0898 0
M  V30 52 Ag 4.3179 -4.5002 5.9388 0
M  V30 53 Fe 3.3035 -2.4726 5.2402 0
M  V30 54 Ag 2.3880 -0.5352 4.2216 0
M  V30 55 Ag 2.4569 2.1713 -1.9757 0
M  V30 56 Fe 1.7245 3.3767 -3.8711 0
M  V30 57 Ag 0.2030 4.3456 -5.3988 0
M  V30 58 Ag 0.6981 3.1589 -0.9027 0
M  V30 59 Fe -0.3105 4.7557 -2.3277 0
M  V30 60 Ag -1.3407 5.6358 -4.2640 0
M  V30 61 Ag 5.8246 -4.4188 4.2038 0
M  V30 62 Fe 4.8828 -2.4767 3.2059 0
M  V30 63 Ag 3.6699 -0.6127 2.3634 0
M  V30 64 Ag 2.4813 2.1308 0.0332 0
M  V30 65 Fe 2.2404 3.6376 1.8360 0
M  V30 66 Ag 1.2721 5.0267 3.4827 0
M  V30 67 Ag -0.6769 -7.2709 0.2511 0
M  V30 68 Fe -2.2927 -5.6484 -0.3765 0
M  V30 69 Ag -3.7069 -3.8676 -1.0581 0
M  V30 70 Ag 0.9807 -8.4247 1.9514 0
M  V30 71 Fe 2.3752 -7.8872 3.8056 0
M  V30 72 Ag 3.9741 -7.0102 5.3375 0
M  V30 73 Ag -4.0498 6.0107 -0.7545 0
M  V30 74 Fe -2.3804 6.3769 0.9093 0
M  V30 75 Ag -0.8047 6.4103 2.6994 0
M  V30 76 Ag 1.5778 -6.4218 -0.6800 0
M  V30 77 Fe 1.5815 -4.2155 -1.5677 0
M  V30 78 Ag 1.6628 -2.0226 -2.4844 0
M  V30 79 Ag -6.0024 3.1860 -0.8888 0
M  V30 80 Fe -5.5015 0.8651 -0.8454 0
M  V30 81 Ag -4.7381 -1.3824 -0.9113 0
M  V30 82 Ba -5.1181 4.5933 -2.8074 0
M  V30 83 Ga -4.1635 4.4724 -3.9319 0
M  V30 84 Ba -3.2686 4.3477 -5.1042 0
M  V30 85 Ba 1.4179 0.5097 -1.8553 0
M  V30 86 Ga 1.7154 0.5573 -0.3904 0
M  V30 87 Ba 2.0325 0.8909 1.0284 0
M  V30 88 Ba -0.4441 1.1143 -1.3595 0
M  V30 89 Ga -1.5680 0.1700 -1.5826 0
M  V30 90 Ba -2.7912 -0.6227 -1.8684 0
M  V30 91 Ba -1.4239 2.6303 -5.6473 0
M  V30 92 Ga -0.7398 1.5580 -4.8635 0
M  V30 93 Ba -0.1260 0.3661 -4.2070 0
M  V30 94 Ba -0.3330 3.5704 4.4975 0
M  V30 95 Ga 0.3050 2.3329 3.9845 0
M  V30 96 Ba 0.8804 1.0417 3.5351 0
M  V30 97 Ba 0.1149 -1.9134 -3.9692 0
M  V30 98 Ga -1.1216 -2.5079 -3.4544 0
M  V30 99 Ba -2.3547 -2.9625 -2.8047 0
M  V30 END ATOM
M  V30 BEGIN BOND
M  V30 1 1 1 2
M  V30 2 1 1 3
M  V30 3 1 1 4
M  V30 4 1 1 5
M  V30 5 1 6 7
M  V30 6 1 6 8
M  V30 7 1 6 9
M  V30 8 1 6 10
M  V30 9 1 11 12
M  V30 10 1 11 13
M  V30 11 1 11 14
M  V30 12 1 11 15
M  V30 13 1 16 17
M  V30 14 1 16 18
M  V30 15 1 16 19
M  V30 16 1 16 20
M  V30 17 1 21 22
M  V30 18 1 21 23
M  V30 19 1 21 24
M  V30 20 1 21 25
M  V30 21 1 26 27
M  V30 22 1 26 28
M  V30 23 1 26 29
M  V30 24 1 26 30
M  V30 25 1 31 32
M  V30 26 1 31 33
M  V30 27 1 31 34
M  V30 28 1 31 35
M  V30 29 1 36 37
M  V30 30 1 36 38
M  V30 31 1 36 39
M  V30 32 1 36 40
M  V30 33 1 41 42
M  V30 34 1 41 43
M  V30 35 1 41 44
M  V30 36 1 41 45
M  V30 37 1 46 47
M  V30 38 1 47 48
M  V30 39 1 49 50
M  V30 40 1 50 51
M  V30 41 1 52 53
M  V30 42 1 53 54
M  V30 43 1 55 56
M  V30 44 1 56 57
M  V30 45 1 58 59
M  V30 46 1 59 60
M  V30 47 1 61 62
M  V30 48 1 62 63
M  V30 49 1 64 65
M  V30 50 1 65 66
M  V30 51 1 67 68
M  V30 52 1 68 69
M  V30 53 1 70 71
M  V30 54 1 71 72
M  V30 55 1 73 74
M  V30 56 1 74 75
M  V30 57 1 76 77
M  V30 58 1 77 78
M  V30 59 1 79 80
M  V30 60 1 80 81
M  V30 61 1 82 83
M  V30 62 1 83 84
M  V30 63 1 85 86
M  V30 64 1 86 87
M  V30 65 1 88 89
M  V30 66 1 89 90
M  V30 67 1 91 92
M  V30 68 1 92 93
M  V30 69 1 94 95
M  V30 70 1 95 96
M  V30 71 1 97 98
M  V30 72 1 98 99
M  V30 73 1 2 88
M  V30 74 1 3 58
M  V30 75 1 4 64
M  V30 76 1 5 55
M  V30 77 1 7 70
M  V30 78 1 8 46
M  V30 79 1 9 67
M  V30 80 1 10 76
M  V30 81 1 12 49
M  V30 82 1 13 82
M  V30 83 1 14 73
M  V30 84 1 15 79
M  V30 85 1 17 48
M  V30 86 1 18 52
M  V30 87 1 19 61
M  V30 88 1 20 72
M  V30 89 1 22 51
M  V30 90 1 23 66
M  V30 91 1 24 94
M  V30 92 1 25 75
M  V30 93 1 27 60
M  V30 94 1 28 91
M  V30 95 1 29 84
M  V30 96 1 30 57
M  V30 97 1 32 78
M  V30 98 1 33 97
M  V30 99 1 34 85
M  V30 100 1 35 93
M  V30 101 1 37 87
M  V30 102 1 38 96
M  V30 103 1 39 63
M  V30 104 1 40 54
M  V30 105 1 42 69
M  V30 106 1 43 90
M  V30 107 1 44 99
M  V30 108 1 45 81
M  V30 END BOND
M  V30 END CTAB
M  END

$$$$
