
     RDKit          3D

  0  0  0  0  0  0  0  0  0  0999 V3000
M  V30 BEGIN CTAB
M  V30 COUNTS 99 108 0 0 0
M  V30 BEGIN ATOM
M  V30 1 Pd 5.8435 -1.3055 -2.9656 0
M  V30 2 Pb 6.0227 -1.8389 -2.1390 0
M  V30 3 Pb 5.6351 -0.8086 -3.8112 0
M  V30 4 Pb 6.5736 -1.7764 -3.4613 0
M  V30 5 Pb 5.1008 -0.8634 -2.4619 0
M  V30 6 Pd 4.9833 -3.6228 -7.0457 0
M  V30 7 Pb 4.8985 -4.5881 -6.8044 0
M  V30 8 Pb 5.9291 -3.6037 -6.7290 0
M  V30 9 Pb 5.0111 -2.6264 -7.1127 0
M  V30 10 Pb 4.0052 -3.6388 -7.2480 0
M  V30 11 Pd 1.0841 2.7688 2.3552 0
M  V30 12 Pb 1.0317 2.1473 3.1359 0
M  V30 13 Pb 1.0369 3.3766 1.5645 0
M  V30 14 Pb 0.7157 3.5098 2.9185 0
M  V30 15 Pb 1.5533 2.0874 1.7825 0
M  V30 16 Pd -3.3451 5.5617 5.2068 0
M  V30 17 Pb -4.2505 5.6930 5.5952 0
M  V30 18 Pb -3.1545 4.9666 5.9829 0
M  V30 19 Pb -3.6630 5.9362 4.3173 0
M  V30 20 Pb -2.3992 5.4990 4.8854 0
M  V30 21 Pd 2.3926 -2.7649 0.6209 0
M  V30 22 Pb 1.4137 -2.5843 0.6510 0
M  V30 23 Pb 2.1973 -3.7437 0.7109 0
M  V30 24 Pb 2.5656 -1.7822 0.5168 0
M  V30 25 Pb 3.3767 -2.9440 0.5674 0
M  V30 26 Pd 0.1133 -5.9155 -2.7188 0
M  V30 27 Pb 0.8635 -6.4471 -3.1123 0
M  V30 28 Pb -0.6015 -5.3189 -2.3561 0
M  V30 29 Pb -0.0627 -5.5823 -3.6439 0
M  V30 30 Pb 0.3870 -6.1680 -1.7911 0
M  V30 31 Pd -3.2531 0.5885 4.4422 0
M  V30 32 Pb -3.0432 0.0472 3.6335 0
M  V30 33 Pb -4.2175 0.5304 4.1560 0
M  V30 34 Pb -2.2799 0.5830 4.6861 0
M  V30 35 Pb -3.4074 1.1326 5.2727 0
M  V30 36 Pd -1.4725 1.4102 -1.3534 0
M  V30 37 Pb -2.4012 1.7401 -1.5169 0
M  V30 38 Pb -1.1151 2.3420 -1.3540 0
M  V30 39 Pb -0.5371 1.1076 -1.1695 0
M  V30 40 Pb -1.8061 0.4673 -1.3300 0
M  V30 41 Pd -6.3198 3.2918 1.2995 0
M  V30 42 Pb -5.9323 4.2286 1.3484 0
M  V30 43 Pb -6.9803 3.5269 2.0028 0
M  V30 44 Pb -6.5304 2.3373 1.4959 0
M  V30 45 Pb -5.7841 3.0692 0.4815 0
M  V30 46 Ag 3.2608 -3.7086 -7.2874 0
M  V30 47 Fe 1.4419 -4.4646 -5.9641 0
M  V30 48 Ag -0.0694 -5.3055 -4.3394 0
M  V30 49 Ag 4.5593 -0.5802 -2.0261 0
M  V30 50 Fe 2.3482 0.1676 -1.5850 0
M  V30 51 Ag 0.1772 0.9419 -1.0104 0
M  V30 52 Ag 4.7357 -5.2598 -6.5173 0
M  V30 53 Fe 3.1661 -6.2109 -5.0118 0
M  V30 54 Ag 1.4377 -6.7596 -3.4797 0
M  V30 55 Ag -1.1104 -4.8300 -2.1041 0
M  V30 56 Fe -1.6218 -2.5487 -1.6872 0
M  V30 57 Ag -2.0450 -0.2435 -1.3038 0
M  V30 58 Ag 0.6818 -2.4438 0.6786 0
M  V30 59 Fe -1.1266 -1.4203 1.8177 0
M  V30 60 Ag -2.8598 -0.3594 3.0364 0
M  V30 61 Ag -4.9651 5.7116 5.7799 0
M  V30 62 Fe -6.7602 4.8507 4.5422 0
M  V30 63 Ag -7.3962 3.7544 2.5695 0
M  V30 64 Ba 0.5207 4.1122 3.3224 0
M  V30 65 Ga -0.6328 4.7484 3.9885 0
M  V30 66 Ba -1.6715 5.5175 4.7016 0
M  V30 67 Ba -3.0943 1.9902 -1.6510 0
M  V30 68 Ga -4.2552 2.4511 -0.8634 0
M  V30 69 Ba -5.4802 2.9312 -0.1938 0
M  V30 70 Ba 5.4972 -0.4925 -4.4803 0
M  V30 71 Ga 5.2570 -1.1148 -5.7982 0
M  V30 72 Ba 5.0310 -1.8807 -7.0405 0
M  V30 73 Ba -4.9002 0.3928 3.8545 0
M  V30 74 Ga -5.7826 1.0042 2.8321 0
M  V30 75 Ba -6.6313 1.6656 1.8127 0
M  V30 76 Ba -3.9421 6.1511 3.6348 0
M  V30 77 Ga -4.7717 5.5219 2.5561 0
M  V30 78 Ba -5.6002 4.9099 1.4666 0
M  V30 79 Ba 7.0862 -2.1347 -3.8753 0
M  V30 80 Ga 6.9285 -2.8603 -5.1474 0
M  V30 81 Ba 6.6024 -3.5457 -6.4095 0
M  V30 82 Ba 2.0156 -4.4714 0.7669 0
M  V30 83 Ga 1.3302 -5.4147 -0.1391 0
M  V30 84 Ba 0.6397 -6.3006 -1.0977 0
M  V30 85 Ba 0.9265 1.6958 3.7249 0
M  V30 86 Ga -0.3014 1.1173 4.3075 0
M  V30 87 Ba -1.5486 0.5553 4.8651 0
M  V30 88 Ba 1.9683 1.6639 1.3134 0
M  V30 89 Ga 2.2826 0.2728 0.9161 0
M  V30 90 Ba 2.7055 -1.0509 0.4045 0
M  V30 91 Ba 6.1052 -2.2387 -1.5097 0
M  V30 92 Ga 5.1335 -2.6656 -0.4836 0
M  V30 93 Ba 4.1165 -3.0634 0.5099 0
M  V30 94 Ba -3.1337 4.4200 6.4932 0
M  V30 95 Ga -3.2631 2.9669 6.2509 0
M  V30 96 Ba -3.4023 1.5336 5.9135 0
M  V30 97 Ba 0.9227 3.7988 0.9575 0
M  V30 98 Ga 0.0892 3.4884 -0.2147 0
M  V30 99 Ba -0.7791 3.0080 -1.3011 0
M  V30 END ATOM
M  V30 BEGIN BOND
M  V30 1 1 1 2
M  V30 2 1 1 3
M  V30 3 1 1 4
M  V30 4 1 1 5
M  V30 5 1 6 7
M  V30 6 1 6 8
M  V30 7 1 6 9
M  V30 8 1 6 10
M  V30 9 1 11 12
M  V30 10 1 11 13
M  V30 11 1 11 14
M  V30 12 1 11 15
M  V30 13 1 16 17
M  V30 14 1 16 18
M  V30 15 1 16 19
M  V30 16 1 16 20
M  V30 17 1 21 22
M  V30 18 1 21 23
M  V30 19 1 21 24
M  V30 20 1 21 25
M  V30 21 1 26 27
M  V30 22 1 26 28
M  V30 23 1 26 29
M  V30 24 1 26 30
M  V30 25 1 31 32
M  V30 26 1 31 33
M  V30 27 1 31 34
M  V30 28 1 31 35
M  V30 29 1 36 37
M  V30 30 1 36 38
M  V30 31 1 36 39
M  V30 32 1 36 40
M  V30 33 1 41 42
M  V30 34 1 41 43
M  V30 35 1 41 44
M  V30 36 1 41 45
M  V30 37 1 46 47
M  V30 38 1 47 48
M  V30 39 1 49 50
M  V30 40 1 50 51
M  V30 41 1 52 53
M  V30 42 1 53 54
M  V30 43 1 55 56
M  V30 44 1 56 57
M  V30 45 1 58 59
M  V30 46 1 59 60
M  V30 47 1 61 62
M  V30 48 1 62 63
M  V30 49 1 64 65
M  V30 50 1 65 66
M  V30 51 1 67 68
M  V30 52 1 68 69
M  V30 53 1 70 71
M  V30 54 1 71 72
M  V30 55 1 73 74
M  V30 56 1 74 75
M  V30 57 1 76 77
M  V30 58 1 77 78
M  V30 59 1 79 80
M  V30 60 1 80 81
M  V30 61 1 82 83
M  V30 62 1 83 84
M  V30 63 1 85 86
M  V30 64 1 86 87
M  V30 65 1 88 89
M  V30 66 1 89 90
M  V30 67 1 91 92
M  V30 68 1 92 93
M  V30 69 1 94 95
M  V30 70 1 95 96
M  V30 71 1 97 98
M  V30 72 1 98 99
M  V30 73 1 2 91
M  V30 74 1 3 70
M  V30 75 1 4 79
M  V30 76 1 5 49
M  V30 77 1 7 52
M  V30 78 1 8 81
M  V30 79 1 9 72
M  V30 80 1 10 46
M  V30 81 1 12 85
M  V30 82 1 13 97
M  V30 83 1 14 64
M  V30 84 1 15 88
M  V30 85 1 17 61
M  V30 86 1 18 94
M  V30 87 1 19 76
M  V30 88 1 20 66
M  V30 89 1 22 58
M  V30 90 1 23 82
M  V30 91 1 24 90
M  V30 92 1 25 93
M  V30 93 1 27 54
M  V30 94 1 28 55
M  V30 95 1 29 48
M  V30 96 1 30 84
M  V30 97 1 32 60
M  V30 98 1 33 73
M  V30 99 1 34 87
M  V30 100 1 35 96
M  V30 101 1 37 67
M  V30 102 1 38 99
M  V30 103 1 39 51
M  V30 104 1 40 57
M  V30 105 1 42 78
M  V30 106 1 43 63
M  V30 107 1 44 75
M  V30 108 1 45 69
M  V30 END BOND
M  V30 END CTAB
M  END

$$$$
