
     RDKit          3D

  0  0  0  0  0  0  0  0  0  0999 V3000
M  V30 BEGIN CTAB
M  V30 COUNTS 99 108 0 0 0
M  V30 BEGIN ATOM
M  V30 1 Pd -4.1875 -4.1580 -2.7256 0
M  V30 2 Pb -5.0579 -4.1615 -3.2119 0
M  V30 3 Pb -3.6853 -4.2201 -3.5919 0
M  V30 4 Pb -4.6865 -4.0886 -1.8619 0
M  V30 5 Pb -3.3575 -3.9066 -2.2305 0
M  V30 6 Pd -2.6952 -4.7523 2.3582 0
M  V30 7 Pb -2.2606 -4.8984 1.4682 0
M  V30 8 Pb -1.8257 -5.0004 2.7748 0
M  V30 9 Pb -3.5668 -4.5062 1.9349 0
M  V30 10 Pb -2.9507 -4.3445 3.2429 0
M  V30 11 Pd 6.6421 0.8538 4.5017 0
M  V30 12 Pb 7.3225 1.4423 4.9375 0
M  V30 13 Pb 5.9761 1.1657 5.1820 0
M  V30 14 Pb 5.9400 0.3464 4.0035 0
M  V30 15 Pb 7.2666 0.7910 3.7175 0
M  V30 16 Pd 0.1830 -1.3077 3.8820 0
M  V30 17 Pb 0.4533 -2.2627 3.9663 0
M  V30 18 Pb 0.7733 -1.2578 3.0751 0
M  V30 19 Pb -0.0703 -0.3419 3.8171 0
M  V30 20 Pb -0.5882 -1.5214 4.4936 0
M  V30 21 Pd -1.4665 -0.6611 -5.4922 0
M  V30 22 Pb -1.6211 -1.6159 -5.7435 0
M  V30 23 Pb -1.4092 0.2858 -5.1649 0
M  V30 24 Pb -0.7659 -0.9759 -4.8515 0
M  V30 25 Pb -2.1384 -0.3536 -6.1639 0
M  V30 26 Pd -2.8002 2.2117 0.6739 0
M  V30 27 Pb -2.4225 1.3129 0.4312 0
M  V30 28 Pb -2.2195 2.2183 1.4889 0
M  V30 29 Pb -1.8933 2.6337 0.6389 0
M  V30 30 Pb -3.6802 1.9974 0.2444 0
M  V30 31 Pd -5.4746 1.7404 -4.3331 0
M  V30 32 Pb -5.2619 1.6228 -5.2988 0
M  V30 33 Pb -4.6026 2.2213 -4.2260 0
M  V30 34 Pb -5.6540 1.7767 -3.3487 0
M  V30 35 Pb -6.2419 1.1116 -4.4503 0
M  V30 36 Pd 2.0067 1.2461 -1.6307 0
M  V30 37 Pb 2.3577 0.7669 -0.8243 0
M  V30 38 Pb 2.6013 2.0370 -1.4730 0
M  V30 39 Pb 1.8301 0.3638 -2.0615 0
M  V30 40 Pb 1.6818 1.9833 -1.0420 0
M  V30 41 Pd 7.4256 4.9182 2.4204 0
M  V30 42 Pb 6.8085 5.4838 2.9707 0
M  V30 43 Pb 7.9588 4.7425 3.2474 0
M  V30 44 Pb 6.8383 5.0072 1.6168 0
M  V30 45 Pb 7.9139 4.1486 1.9981 0
M  V30 46 Ag -5.6941 -3.9469 -3.5372 0
M  V30 47 Fe -6.5134 -1.8119 -4.1589 0
M  V30 48 Ag -6.6936 0.5214 -4.5344 0
M  V30 49 Ag 5.4106 0.0132 3.5906 0
M  V30 50 Fe 3.9980 0.1780 1.6876 0
M  V30 51 Ag 2.6041 0.3863 -0.2249 0
M  V30 52 Ag -1.7594 -4.7757 0.9270 0
M  V30 53 Fe -0.0542 -3.1454 1.1257 0
M  V30 54 Ag 1.0092 -1.4516 2.3926 0
M  V30 55 Ag 5.5424 1.6558 5.5419 0
M  V30 56 Fe 5.4913 3.9408 4.9403 0
M  V30 57 Ag 6.3089 5.6320 3.5058 0
M  V30 58 Ag -2.8112 -3.5714 -1.8418 0
M  V30 59 Fe -2.3758 -1.4996 -0.7590 0
M  V30 60 Ag -2.1374 0.6349 0.2623 0
M  V30 61 Ag 3.0379 2.6418 -1.3782 0
M  V30 62 Fe 4.7049 3.8483 -0.1910 0
M  V30 63 Ag 6.3752 5.0183 1.0276 0
M  V30 64 Ba -0.2391 0.3890 3.7919 0
M  V30 65 Ga -1.0238 1.2950 2.9314 0
M  V30 66 Ba -1.7931 2.2458 2.1061 0
M  V30 67 Ba 7.7156 0.8869 3.1164 0
M  V30 68 Ga 8.0177 2.1501 2.3943 0
M  V30 69 Ba 8.2173 3.4899 1.7834 0
M  V30 70 Ba -3.3127 -4.2661 -4.2450 0
M  V30 71 Ga -2.5371 -3.3212 -5.0744 0
M  V30 72 Ba -1.7705 -2.3396 -5.8689 0
M  V30 73 Ba -1.4523 0.9943 -4.9107 0
M  V30 74 Ga -2.6359 1.7982 -4.5310 0
M  V30 75 Ba -3.8999 2.4870 -4.1859 0
M  V30 76 Ba -0.2323 -1.2563 -4.4046 0
M  V30 77 Ga 0.7170 -0.7623 -3.3915 0
M  V30 78 Ba 1.6769 -0.2978 -2.3744 0
M  V30 79 Ba 7.8147 1.9463 5.1929 0
M  V30 80 Ga 8.1318 3.2595 4.6036 0
M  V30 81 Ba 8.3121 4.5261 3.8718 0
M  V30 82 Ba -3.0180 -3.9498 3.8888 0
M  V30 83 Ga -2.1498 -2.8608 4.4231 0
M  V30 84 Ba -1.2064 -1.7861 4.8477 0
M  V30 85 Ba -2.6428 -0.0835 -6.6462 0
M  V30 86 Ga -3.8639 0.6981 -6.4043 0
M  V30 87 Ba -5.0486 1.4656 -5.9955 0
M  V30 88 Ba -1.2268 2.9795 0.6307 0
M  V30 89 Ga 0.0934 2.7515 0.0169 0
M  V30 90 Ba 1.4126 2.5212 -0.5978 0
M  V30 91 Ba -4.3706 1.8852 -0.0329 0
M  V30 92 Ga -5.0505 1.8232 -1.3433 0
M  V30 93 Ba -5.8029 1.7484 -2.6128 0
M  V30 94 Ba -1.1623 -5.1255 3.0896 0
M  V30 95 Ga -0.2089 -4.1255 3.5807 0
M  V30 96 Ba 0.6117 -2.9897 4.0133 0
M  V30 97 Ba -5.0484 -4.0291 -1.2079 0
M  V30 98 Ga -4.6455 -4.1780 0.2028 0
M  V30 99 Ba -4.2177 -4.3326 1.6056 0
M  V30 END ATOM
M  V30 BEGIN BOND
M  V30 1 1 1 2
M  V30 2 1 1 3
M  V30 3 1 1 4
M  V30 4 1 1 5
M  V30 5 1 6 7
M  V30 6 1 6 8
M  V30 7 1 6 9
M  V30 8 1 6 10
M  V30 9 1 11 12
M  V30 10 1 11 13
M  V30 11 1 11 14
M  V30 12 1 11 15
M  V30 13 1 16 17
M  V30 14 1 16 18
M  V30 15 1 16 19
M  V30 16 1 16 20
M  V30 17 1 21 22
M  V30 18 1 21 23
M  V30 19 1 21 24
M  V30 20 1 21 25
M  V30 21 1 26 27
M  V30 22 1 26 28
M  V30 23 1 26 29
M  V30 24 1 26 30
M  V30 25 1 31 32
M  V30 26 1 31 33
M  V30 27 1 31 34
M  V30 28 1 31 35
M  V30 29 1 36 37
M  V30 30 1 36 38
M  V30 31 1 36 39
M  V30 32 1 36 40
M  V30 33 1 41 42
M  V30 34 1 41 43
M  V30 35 1 41 44
M  V30 36 1 41 45
M  V30 37 1 46 47
M  V30 38 1 47 48
M  V30 39 1 49 50
M  V30 40 1 50 51
M  V30 41 1 52 53
M  V30 42 1 53 54
M  V30 43 1 55 56
M  V30 44 1 56 57
M  V30 45 1 58 59
M  V30 46 1 59 60
M  V30 47 1 61 62
M  V30 48 1 62 63
M  V30 49 1 64 65
M  V30 50 1 65 66
M  V30 51 1 67 68
M  V30 52 1 68 69
M  V30 53 1 70 71
M  V30 54 1 71 72
M  V30 55 1 73 74
M  V30 56 1 74 75
M  V30 57 1 76 77
M  V30 58 1 77 78
M  V30 59 1 79 80
M  V30 60 1 80 81
M  V30 61 1 82 83
M  V30 62 1 83 84
M  V30 63 1 85 86
M  V30 64 1 86 87
M  V30 65 1 88 89
M  V30 66 1 89 90
M  V30 67 1 91 92
M  V30 68 1 92 93
M  V30 69 1 94 95
M  V30 70 1 95 96
M  V30 71 1 97 98
M  V30 72 1 98 99
M  V30 73 1 2 46
M  V30 74 1 3 70
M  V30 75 1 4 97
M  V30 76 1 5 58
M  V30 77 1 7 52
M  V30 78 1 8 94
M  V30 79 1 9 99
M  V30 80 1 10 82
M  V30 81 1 12 79
M  V30 82 1 13 55
M  V30 83 1 14 49
M  V30 84 1 15 67
M  V30 85 1 17 96
M  V30 86 1 18 54
M  V30 87 1 19 64
M  V30 88 1 20 84
M  V30 89 1 22 72
M  V30 90 1 23 73
M  V30 91 1 24 76
M  V30 92 1 25 85
M  V30 93 1 27 60
M  V30 94 1 28 66
M  V30 95 1 29 88
M  V30 96 1 30 91
M  V30 97 1 32 87
M  V30 98 1 33 75
M  V30 99 1 34 93
M  V30 100 1 35 48
M  V30 101 1 37 51
M  V30 102 1 38 61
M  V30 103 1 39 78
M  V30 104 1 40 90
M  V30 105 1 42 57
M  V30 106 1 43 81
M  V30 107 1 44 63
M  V30 108 1 45 69
M  V30 END BOND
M  V30 END CTAB
M  END

$$$$
