
     RDKit          3D

  0  0  0  0  0  0  0  0  0  0999 V3000
M  V30 BEGIN CTAB
M  V30 COUNTS 99 108 0 0 0
M  V30 BEGIN ATOM
M  V30 1 Pd 3.4141 -3.1229 -3.0735 0
M  V30 2 Pb 2.7983 -3.3637 -3.8250 0
M  V30 3 Pb 4.0711 -2.9352 -2.3440 0
M  V30 4 Pb 3.8694 -2.4377 -3.6430 0
M  V30 5 Pb 2.9411 -3.7688 -2.4743 0
M  V30 6 Pd 2.4733 1.5416 7.7880 0
M  V30 7 Pb 1.6622 2.0926 7.6020 0
M  V30 8 Pb 3.0750 2.2413 7.4128 0
M  V30 9 Pb 1.8991 0.7809 8.0726 0
M  V30 10 Pb 3.2613 0.9128 7.8462 0
M  V30 11 Pd -6.7681 0.5904 -3.9086 0
M  V30 12 Pb -7.0483 -0.3637 -3.9522 0
M  V30 13 Pb -6.9757 0.6295 -2.9322 0
M  V30 14 Pb -6.4706 1.5422 -3.8561 0
M  V30 15 Pb -6.4677 0.5259 -4.8748 0
M  V30 16 Pd -1.5446 5.0230 -0.7610 0
M  V30 17 Pb -2.3752 5.0611 -1.3139 0
M  V30 18 Pb -1.0027 4.9138 -1.6101 0
M  V30 19 Pb -2.0972 5.1464 0.0660 0
M  V30 20 Pb -0.7025 4.9399 -0.2362 0
M  V30 21 Pd -3.7336 1.8811 3.1290 0
M  V30 22 Pb -3.0876 2.1380 3.8508 0
M  V30 23 Pb -4.4559 1.6585 2.4715 0
M  V30 24 Pb -3.8037 2.8534 2.9052 0
M  V30 25 Pb -3.6218 0.9001 3.3032 0
M  V30 26 Pd 2.5748 2.1991 -4.1925 0
M  V30 27 Pb 1.8894 2.9259 -4.0235 0
M  V30 28 Pb 2.1256 1.9978 -5.0620 0
M  V30 29 Pb 3.2574 1.4903 -4.3837 0
M  V30 30 Pb 2.9801 2.4040 -3.3062 0
M  V30 31 Pd -2.8746 -1.9780 -7.3508 0
M  V30 32 Pb -2.0966 -2.5954 -7.2484 0
M  V30 33 Pb -2.2280 -1.2460 -7.5598 0
M  V30 34 Pb -3.6526 -1.3280 -7.3621 0
M  V30 35 Pb -3.5098 -2.7045 -7.1071 0
M  V30 36 Pd 0.7773 -4.3507 4.0472 0
M  V30 37 Pb -0.1529 -4.0211 3.8782 0
M  V30 38 Pb 1.7244 -4.6233 4.2340 0
M  V30 39 Pb 0.6738 -4.0210 4.9822 0
M  V30 40 Pb 0.8678 -4.6797 3.1065 0
M  V30 41 Pd 5.6437 -1.7741 4.3534 0
M  V30 42 Pb 5.9703 -0.8391 4.2404 0
M  V30 43 Pb 5.8280 -1.9545 3.3882 0
M  V30 44 Pb 5.2940 -2.7080 4.4702 0
M  V30 45 Pb 5.4659 -1.5551 5.3256 0
M  V30 46 Ag 1.0360 2.4476 7.3968 0
M  V30 47 Fe -0.8102 2.4205 5.9015 0
M  V30 48 Ag -2.6601 2.4029 4.4105 0
M  V30 49 Ag 2.3564 -3.5769 -4.3937 0
M  V30 50 Fe 0.4390 -3.3172 -5.7709 0
M  V30 51 Ag -1.4910 -3.0168 -7.1219 0
M  V30 52 Ag -3.5486 0.1541 3.3732 0
M  V30 53 Fe -2.2035 -1.7945 3.5887 0
M  V30 54 Ag -0.8429 -3.7321 3.8063 0
M  V30 55 Ag 3.6001 2.5929 7.0245 0
M  V30 56 Fe 5.1224 1.6485 5.4896 0
M  V30 57 Ag 6.1092 -0.1089 4.2622 0
M  V30 58 Ag -7.1305 -1.0884 -4.0857 0
M  V30 59 Fe -5.8404 -2.5552 -5.4045 0
M  V30 60 Ag -4.0557 -3.1254 -6.8343 0
M  V30 61 Ag -0.0177 4.7988 0.0154 0
M  V30 62 Fe 1.8453 3.7389 -0.9770 0
M  V30 63 Ag 3.1338 2.6253 -2.6136 0
M  V30 64 Ag -6.2345 2.2478 -3.7749 0
M  V30 65 Fe -4.6417 3.7056 -2.7901 0
M  V30 66 Ag -2.9859 5.0475 -1.7464 0
M  V30 67 Ag 1.5238 0.1490 8.1900 0
M  V30 68 Fe 0.9650 -1.8544 7.0563 0
M  V30 69 Ag 0.5733 -3.7297 5.6623 0
M  V30 70 Ag 2.5801 -4.2263 -2.0023 0
M  V30 71 Fe 1.7538 -4.6023 0.1927 0
M  V30 72 Ag 0.9471 -4.9289 2.4028 0
M  V30 73 Ag 4.5906 -2.8230 -1.8155 0
M  V30 74 Fe 5.2523 -2.4435 0.4328 0
M  V30 75 Ag 5.9758 -2.0634 2.6619 0
M  V30 76 Ag 1.7525 1.8466 -5.6938 0
M  V30 77 Fe 0.0322 0.5940 -6.7458 0
M  V30 78 Ag -1.7110 -0.7180 -7.6810 0
M  V30 79 Ag -7.0715 0.6712 -2.1903 0
M  V30 80 Fe -6.0530 1.0804 -0.0834 0
M  V30 81 Ag -5.0363 1.4890 2.0246 0
M  V30 82 Ba -2.5419 5.2558 0.6629 0
M  V30 83 Ga -3.1760 4.4156 1.6988 0
M  V30 84 Ba -3.8146 3.5851 2.7398 0
M  V30 85 Ba -0.6288 4.8857 -2.2740 0
M  V30 86 Ga 0.3958 4.1246 -3.0424 0
M  V30 87 Ba 1.3893 3.4978 -3.9586 0
M  V30 88 Ba -6.2436 0.4808 -5.6036 0
M  V30 89 Ga -5.2192 -0.2061 -6.4438 0
M  V30 90 Ba -4.2390 -0.8388 -7.3745 0
M  V30 91 Ba 3.8243 0.4027 7.8753 0
M  V30 92 Ga 4.5786 -0.4673 6.9303 0
M  V30 93 Ba 5.3813 -1.3718 6.0607 0
M  V30 94 Ba 4.2171 -1.9063 -4.0433 0
M  V30 95 Ga 3.9815 -0.4702 -4.2971 0
M  V30 96 Ba 3.7666 0.9666 -4.5644 0
M  V30 97 Ba 2.4380 -4.8155 4.3791 0
M  V30 98 Ga 3.7312 -4.1009 4.4627 0
M  V30 99 Ba 5.0380 -3.4124 4.5530 0
M  V30 END ATOM
M  V30 BEGIN BOND
M  V30 1 1 1 2
M  V30 2 1 1 3
M  V30 3 1 1 4
M  V30 4 1 1 5
M  V30 5 1 6 7
M  V30 6 1 6 8
M  V30 7 1 6 9
M  V30 8 1 6 10
M  V30 9 1 11 12
M  V30 10 1 11 13
M  V30 11 1 11 14
M  V30 12 1 11 15
M  V30 13 1 16 17
M  V30 14 1 16 18
M  V30 15 1 16 19
M  V30 16 1 16 20
M  V30 17 1 21 22
M  V30 18 1 21 23
M  V30 19 1 21 24
M  V30 20 1 21 25
M  V30 21 1 26 27
M  V30 22 1 26 28
M  V30 23 1 26 29
M  V30 24 1 26 30
M  V30 25 1 31 32
M  V30 26 1 31 33
M  V30 27 1 31 34
M  V30 28 1 31 35
M  V30 29 1 36 37
M  V30 30 1 36 38
M  V30 31 1 36 39
M  V30 32 1 36 40
M  V30 33 1 41 42
M  V30 34 1 41 43
M  V30 35 1 41 44
M  V30 36 1 41 45
M  V30 37 1 46 47
M  V30 38 1 47 48
M  V30 39 1 49 50
M  V30 40 1 50 51
M  V30 41 1 52 53
M  V30 42 1 53 54
M  V30 43 1 55 56
M  V30 44 1 56 57
M  V30 45 1 58 59
M  V30 46 1 59 60
M  V30 47 1 61 62
M  V30 48 1 62 63
M  V30 49 1 64 65
M  V30 50 1 65 66
M  V30 51 1 67 68
M  V30 52 1 68 69
M  V30 53 1 70 71
M  V30 54 1 71 72
M  V30 55 1 73 74
M  V30 56 1 74 75
M  V30 57 1 76 77
M  V30 58 1 77 78
M  V30 59 1 79 80
M  V30 60 1 80 81
M  V30 61 1 82 83
M  V30 62 1 83 84
M  V30 63 1 85 86
M  V30 64 1 86 87
M  V30 65 1 88 89
M  V30 66 1 89 90
M  V30 67 1 91 92
M  V30 68 1 92 93
M  V30 69 1 94 95
M  V30 70 1 95 96
M  V30 71 1 97 98
M  V30 72 1 98 99
M  V30 73 1 2 49
M  V30 74 1 3 73
M  V30 75 1 4 94
M  V30 76 1 5 70
M  V30 77 1 7 46
M  V30 78 1 8 55
M  V30 79 1 9 67
M  V30 80 1 10 91
M  V30 81 1 12 58
M  V30 82 1 13 79
M  V30 83 1 14 64
M  V30 84 1 15 88
M  V30 85 1 17 66
M  V30 86 1 18 85
M  V30 87 1 19 82
M  V30 88 1 20 61
M  V30 89 1 22 48
M  V30 90 1 23 81
M  V30 91 1 24 84
M  V30 92 1 25 52
M  V30 93 1 27 87
M  V30 94 1 28 76
M  V30 95 1 29 96
M  V30 96 1 30 63
M  V30 97 1 32 51
M  V30 98 1 33 78
M  V30 99 1 34 90
M  V30 100 1 35 60
M  V30 101 1 37 54
M  V30 102 1 38 97
M  V30 103 1 39 69
M  V30 104 1 40 72
M  V30 105 1 42 57
M  V30 106 1 43 75
M  V30 107 1 44 99
M  V30 108 1 45 93
M  V30 END BOND
M  V30 END CTAB
M  END

$$$$
