
     RDKit          3D

  0  0  0  0  0  0  0  0  0  0999 V3000
M  V30 BEGIN CTAB
M  V30 COUNTS 99 108 0 0 0
M  V30 BEGIN ATOM
M  V30 1 Pd 3.0090 2.6039 3.7408 0
M  V30 2 Pb 2.9757 1.6855 4.1378 0
M  V30 3 Pb 4.0043 2.5158 3.6279 0
M  V30 4 Pb 2.0435 2.7072 3.9744 0
M  V30 5 Pb 2.9769 3.5218 3.3342 0
M  V30 6 Pd 3.7131 -0.1385 -2.1465 0
M  V30 7 Pb 2.8361 -0.1840 -1.6742 0
M  V30 8 Pb 4.6060 -0.0833 -2.5896 0
M  V30 9 Pb 3.3278 0.5463 -2.7701 0
M  V30 10 Pb 4.1140 -0.7812 -1.4877 0
M  V30 11 Pd -2.5948 -5.9549 -2.6126 0
M  V30 12 Pb -3.0689 -6.2496 -1.7831 0
M  V30 13 Pb -2.1211 -5.4886 -3.3551 0
M  V30 14 Pb -3.4505 -5.7599 -3.0895 0
M  V30 15 Pb -1.7435 -6.0458 -2.0985 0
M  V30 16 Pd -6.4299 0.0644 -3.0344 0
M  V30 17 Pb -6.5032 -0.7911 -3.5447 0
M  V30 18 Pb -6.2938 0.8659 -2.4565 0
M  V30 19 Pb -6.0117 0.5428 -3.8081 0
M  V30 20 Pb -6.7544 -0.4116 -2.2159 0
M  V30 21 Pd -1.5700 1.1642 -3.2599 0
M  V30 22 Pb -0.9859 0.8191 -2.5262 0
M  V30 23 Pb -1.4078 0.3236 -3.7772 0
M  V30 24 Pb -2.2354 1.4567 -3.9487 0
M  V30 25 Pb -1.6976 2.0049 -2.7315 0
M  V30 26 Pd -4.4312 0.3633 3.8587 0
M  V30 27 Pb -4.6471 1.0442 3.1601 0
M  V30 28 Pb -4.2039 -0.3319 4.5437 0
M  V30 29 Pb -3.7386 0.9761 4.2318 0
M  V30 30 Pb -5.1014 -0.2302 3.4132 0
M  V30 31 Pd -1.0773 -3.8950 4.0336 0
M  V30 32 Pb -0.3028 -3.3639 4.3832 0
M  V30 33 Pb -1.6946 -3.4690 4.6972 0
M  V30 34 Pb -0.4961 -4.3100 3.3352 0
M  V30 35 Pb -1.8274 -4.4343 3.6451 0
M  V30 36 Pd 1.9320 4.6847 -1.1620 0
M  V30 37 Pb 0.9373 4.5655 -1.1191 0
M  V30 38 Pb 2.9148 4.8438 -1.2142 0
M  V30 39 Pb 1.9544 4.1987 -2.0380 0
M  V30 40 Pb 1.9729 5.0920 -0.2472 0
M  V30 41 Pd 7.4867 0.9817 0.4838 0
M  V30 42 Pb 7.6299 0.7306 -0.4717 0
M  V30 43 Pb 7.2733 1.2722 1.4180 0
M  V30 44 Pb 7.6375 1.9316 0.2357 0
M  V30 45 Pb 7.1539 0.0561 0.6522 0
M  V30 46 Ag 2.8983 0.9994 4.4336 0
M  V30 47 Fe 1.6152 -0.9982 4.5471 0
M  V30 48 Ag 0.2937 -2.9724 4.6212 0
M  V30 49 Ag -6.1596 1.3902 -1.9411 0
M  V30 50 Fe -5.4977 1.6097 0.3266 0
M  V30 51 Ag -4.8245 1.5079 2.5994 0
M  V30 52 Ag -1.1515 -6.0524 -1.6406 0
M  V30 53 Fe -0.4836 -5.4008 0.5413 0
M  V30 54 Ag -0.1418 -4.6354 2.7614 0
M  V30 55 Ag -3.3509 -6.3590 -1.0965 0
M  V30 56 Fe -2.9704 -5.6944 1.1535 0
M  V30 57 Ag -2.3348 -4.8577 3.2856 0
M  V30 58 Ag -6.9241 -0.7374 -1.5610 0
M  V30 59 Fe -6.3601 -0.7825 0.7463 0
M  V30 60 Ag -5.5896 -0.6075 2.9866 0
M  V30 61 Ag -4.0576 -5.5098 -3.4494 0
M  V30 62 Fe -5.3875 -3.5677 -3.7535 0
M  V30 63 Ag -6.5121 -1.4794 -3.8394 0
M  V30 64 Ag 1.3397 2.7898 4.2168 0
M  V30 65 Fe -0.9334 2.1195 4.3376 0
M  V30 66 Ag -3.2071 1.4511 4.4565 0
M  V30 67 Ag 3.6532 4.9552 -1.2029 0
M  V30 68 Fe 5.7435 3.9859 -0.6576 0
M  V30 69 Ag 7.5710 2.6309 -0.0043 0
M  V30 70 Ag -1.8140 -5.0172 -3.8460 0
M  V30 71 Fe -1.4756 -2.6850 -4.1231 0
M  V30 72 Ag -1.2757 -0.3202 -4.1388 0
M  V30 73 Ba 2.1820 -0.2032 -1.3138 0
M  V30 74 Ga 0.7985 0.1741 -1.6492 0
M  V30 75 Ba -0.5956 0.5411 -1.9500 0
M  V30 76 Ba -1.7621 2.6228 -2.3090 0
M  V30 77 Ga -0.7895 3.5602 -1.7093 0
M  V30 78 Ba 0.1879 4.4940 -1.1119 0
M  V30 79 Ba -5.6418 0.9176 -4.3441 0
M  V30 80 Ga -4.2172 1.2969 -4.4416 0
M  V30 81 Ba -2.7768 1.6250 -4.4421 0
M  V30 82 Ba 4.4522 -1.2279 -0.9834 0
M  V30 83 Ga 5.6247 -0.9942 -0.1155 0
M  V30 84 Ba 6.8050 -0.6055 0.6829 0
M  V30 85 Ba 5.3069 -0.0514 -2.8490 0
M  V30 86 Ga 6.5377 0.2440 -2.0986 0
M  V30 87 Ba 7.6588 0.5602 -1.1994 0
M  V30 88 Ba 3.0279 1.0772 -3.2125 0
M  V30 89 Ga 2.5083 2.4397 -2.9649 0
M  V30 90 Ba 1.9991 3.7972 -2.6726 0
M  V30 91 Ba 2.8706 4.2136 3.0510 0
M  V30 92 Ga 2.4802 4.7904 1.7443 0
M  V30 93 Ba 2.0916 5.3750 0.4405 0
M  V30 94 Ba 4.7553 2.4346 3.6474 0
M  V30 95 Ga 5.9008 1.9723 2.8328 0
M  V30 96 Ba 7.1119 1.5350 2.1033 0
M  V30 97 Ba -4.0210 -0.8461 5.0610 0
M  V30 98 Ga -3.0963 -1.9969 5.1199 0
M  V30 99 Ba -2.1721 -3.1480 5.1805 0
M  V30 END ATOM
M  V30 BEGIN BOND
M  V30 1 1 1 2
M  V30 2 1 1 3
M  V30 3 1 1 4
M  V30 4 1 1 5
M  V30 5 1 6 7
M  V30 6 1 6 8
M  V30 7 1 6 9
M  V30 8 1 6 10
M  V30 9 1 11 12
M  V30 10 1 11 13
M  V30 11 1 11 14
M  V30 12 1 11 15
M  V30 13 1 16 17
M  V30 14 1 16 18
M  V30 15 1 16 19
M  V30 16 1 16 20
M  V30 17 1 21 22
M  V30 18 1 21 23
M  V30 19 1 21 24
M  V30 20 1 21 25
M  V30 21 1 26 27
M  V30 22 1 26 28
M  V30 23 1 26 29
M  V30 24 1 26 30
M  V30 25 1 31 32
M  V30 26 1 31 33
M  V30 27 1 31 34
M  V30 28 1 31 35
M  V30 29 1 36 37
M  V30 30 1 36 38
M  V30 31 1 36 39
M  V30 32 1 36 40
M  V30 33 1 41 42
M  V30 34 1 41 43
M  V30 35 1 41 44
M  V30 36 1 41 45
M  V30 37 1 46 47
M  V30 38 1 47 48
M  V30 39 1 49 50
M  V30 40 1 50 51
M  V30 41 1 52 53
M  V30 42 1 53 54
M  V30 43 1 55 56
M  V30 44 1 56 57
M  V30 45 1 58 59
M  V30 46 1 59 60
M  V30 47 1 61 62
M  V30 48 1 62 63
M  V30 49 1 64 65
M  V30 50 1 65 66
M  V30 51 1 67 68
M  V30 52 1 68 69
M  V30 53 1 70 71
M  V30 54 1 71 72
M  V30 55 1 73 74
M  V30 56 1 74 75
M  V30 57 1 76 77
M  V30 58 1 77 78
M  V30 59 1 79 80
M  V30 60 1 80 81
M  V30 61 1 82 83
M  V30 62 1 83 84
M  V30 63 1 85 86
M  V30 64 1 86 87
M  V30 65 1 88 89
M  V30 66 1 89 90
M  V30 67 1 91 92
M  V30 68 1 92 93
M  V30 69 1 94 95
M  V30 70 1 95 96
M  V30 71 1 97 98
M  V30 72 1 98 99
M  V30 73 1 2 46
M  V30 74 1 3 94
M  V30 75 1 4 64
M  V30 76 1 5 91
M  V30 77 1 7 73
M  V30 78 1 8 85
M  V30 79 1 9 88
M  V30 80 1 10 82
M  V30 81 1 12 55
M  V30 82 1 13 70
M  V30 83 1 14 61
M  V30 84 1 15 52
M  V30 85 1 17 63
M  V30 86 1 18 49
M  V30 87 1 19 79
M  V30 88 1 20 58
M  V30 89 1 22 75
M  V30 90 1 23 72
M  V30 91 1 24 81
M  V30 92 1 25 76
M  V30 93 1 27 51
M  V30 94 1 28 97
M  V30 95 1 29 66
M  V30 96 1 30 60
M  V30 97 1 32 48
M  V30 98 1 33 99
M  V30 99 1 34 54
M  V30 100 1 35 57
M  V30 101 1 37 78
M  V30 102 1 38 67
M  V30 103 1 39 90
M  V30 104 1 40 93
M  V30 105 1 42 87
M  V30 106 1 43 96
M  V30 107 1 44 69
M  V30 108 1 45 84
M  V30 END BOND
M  V30 END CTAB
M  END

$$$$
