
     RDKit          3D

  0  0  0  0  0  0  0  0  0  0999 V3000
M  V30 BEGIN CTAB
M  V30 COUNTS 99 108 0 0 0
M  V30 BEGIN ATOM
M  V30 1 Pd -0.1277 1.1542 -5.1964 0
M  V30 2 Pb -0.4916 0.2238 -5.2795 0
M  V30 3 Pb -1.0144 1.5072 -5.5108 0
M  V30 4 Pb 0.8045 0.8507 -4.9822 0
M  V30 5 Pb 0.2191 2.0825 -5.0787 0
M  V30 6 Pd -4.5506 1.5507 2.5553 0
M  V30 7 Pb -3.8857 0.8237 2.7204 0
M  V30 8 Pb -4.9688 0.9985 1.8312 0
M  V30 9 Pb -4.0581 2.2133 3.1173 0
M  V30 10 Pb -5.1838 2.2758 2.3047 0
M  V30 11 Pd -0.4567 -5.0969 4.2549 0
M  V30 12 Pb -1.1926 -4.8239 3.6277 0
M  V30 13 Pb -0.7180 -4.4419 4.9637 0
M  V30 14 Pb 0.3714 -5.2863 4.7750 0
M  V30 15 Pb -0.1220 -5.6838 3.5248 0
M  V30 16 Pd 5.3332 -1.6760 2.9779 0
M  V30 17 Pb 5.2019 -2.4125 3.6380 0
M  V30 18 Pb 5.4861 -2.3519 2.2575 0
M  V30 19 Pb 5.1218 -1.0253 3.7105 0
M  V30 20 Pb 5.3990 -0.9501 2.2903 0
M  V30 21 Pd 0.7363 -0.0273 4.5473 0
M  V30 22 Pb -0.0934 -0.2375 4.0308 0
M  V30 23 Pb 0.3780 -0.6534 5.2417 0
M  V30 24 Pb 1.6002 0.1246 5.0282 0
M  V30 25 Pb 1.0790 0.6217 3.8671 0
M  V30 26 Pd 4.2561 -1.7339 -2.2656 0
M  V30 27 Pb 4.6060 -2.4219 -1.6302 0
M  V30 28 Pb 3.9714 -2.4451 -2.9099 0
M  V30 29 Pb 3.9507 -1.0510 -2.9305 0
M  V30 30 Pb 4.5515 -1.0186 -1.6260 0
M  V30 31 Pd -0.2801 -4.1544 -2.8888 0
M  V30 32 Pb -0.6873 -3.5360 -3.5643 0
M  V30 33 Pb 0.5246 -4.2535 -3.4709 0
M  V30 34 Pb 0.1034 -4.8142 -2.2494 0
M  V30 35 Pb -1.0271 -4.0372 -2.2260 0
M  V30 36 Pd 0.0776 6.2256 0.0530 0
M  V30 37 Pb 0.7319 5.5856 0.4520 0
M  V30 38 Pb -0.6247 6.7537 -0.4243 0
M  V30 39 Pb -0.4165 6.1963 0.9231 0
M  V30 40 Pb 0.5265 6.1509 -0.8336 0
M  V30 41 Pd -5.1214 3.7685 -3.8780 0
M  V30 42 Pb -5.4159 2.8458 -3.6235 0
M  V30 43 Pb -4.5844 3.4206 -4.6491 0
M  V30 44 Pb -4.7443 4.6905 -3.9523 0
M  V30 45 Pb -5.6364 4.0946 -3.0908 0
M  V30 46 Ag 1.3900 1.1314 3.4116 0
M  V30 47 Fe 1.2931 3.0888 2.0700 0
M  V30 48 Ag 1.1702 5.0460 0.7303 0
M  V30 49 Ag 0.1392 -6.0389 2.9251 0
M  V30 50 Fe 0.3173 -5.8143 0.5745 0
M  V30 51 Ag 0.3322 -5.3063 -1.7385 0
M  V30 52 Ag -5.6133 2.7983 1.9960 0
M  V30 53 Fe -5.9739 3.7087 -0.1581 0
M  V30 54 Ag -5.9740 4.2821 -2.4540 0
M  V30 55 Ag -5.2390 0.6970 1.1968 0
M  V30 56 Fe -5.5106 1.2589 -1.0982 0
M  V30 57 Ag -5.5996 2.2027 -3.2794 0
M  V30 58 Ag -1.6539 -4.6227 3.0640 0
M  V30 59 Fe -1.7150 -4.2703 0.7083 0
M  V30 60 Ag -1.5132 -3.9877 -1.6490 0
M  V30 61 Ag 1.0541 -5.3296 5.0709 0
M  V30 62 Fe 3.1511 -4.2709 4.7617 0
M  V30 63 Ag 5.0141 -2.9584 4.1123 0
M  V30 64 Ag -3.6842 2.8000 3.3954 0
M  V30 65 Fe -2.2133 4.5097 2.6496 0
M  V30 66 Ag -0.7629 6.0536 1.5742 0
M  V30 67 Ag 0.5032 2.7587 -4.9328 0
M  V30 68 Fe 0.7209 4.4726 -3.3084 0
M  V30 69 Ag 0.7838 6.0337 -1.5246 0
M  V30 70 Ag -1.1263 7.0455 -0.9004 0
M  V30 71 Fe -2.8197 6.3913 -2.4324 0
M  V30 72 Ag -4.4427 5.3660 -3.8312 0
M  V30 73 Ba -3.4067 0.2495 2.7661 0
M  V30 74 Ga -2.0463 -0.0530 3.2482 0
M  V30 75 Ba -0.7063 -0.4907 3.6805 0
M  V30 76 Ba -0.8299 -0.4443 -5.3536 0
M  V30 77 Ga -0.8681 -1.7678 -4.6965 0
M  V30 78 Ba -0.9856 -3.1228 -4.1177 0
M  V30 79 Ba 4.9275 -0.5865 4.2902 0
M  V30 80 Ga 3.6227 -0.1488 4.8285 0
M  V30 81 Ba 2.2844 0.2526 5.3097 0
M  V30 82 Ba 5.5669 -2.8650 1.7170 0
M  V30 83 Ga 5.2363 -2.9035 0.2805 0
M  V30 84 Ba 4.8985 -2.9225 -1.1548 0
M  V30 85 Ba 5.4221 -0.4300 1.7473 0
M  V30 86 Ga 5.1060 -0.4531 0.3021 0
M  V30 87 Ba 4.7864 -0.4904 -1.1419 0
M  V30 88 Ba 1.5459 0.7455 -4.8953 0
M  V30 89 Ga 2.5923 0.0435 -4.1235 0
M  V30 90 Ba 3.7724 -0.5597 -3.4694 0
M  V30 91 Ba -1.6492 1.7703 -5.8230 0
M  V30 92 Ga -2.9105 2.4589 -5.4721 0
M  V30 93 Ba -4.2001 3.1435 -5.2332 0
M  V30 94 Ba 3.7455 -2.9579 -3.4099 0
M  V30 95 Ga 2.4677 -3.6502 -3.6596 0
M  V30 96 Ba 1.1637 -4.3097 -3.8558 0
M  V30 97 Ba -0.8253 -3.9350 5.5063 0
M  V30 98 Ga -0.4049 -2.5257 5.6403 0
M  V30 99 Ba 0.0382 -1.1195 5.7239 0
M  V30 END ATOM
M  V30 BEGIN BOND
M  V30 1 1 1 2
M  V30 2 1 1 3
M  V30 3 1 1 4
M  V30 4 1 1 5
M  V30 5 1 6 7
M  V30 6 1 6 8
M  V30 7 1 6 9
M  V30 8 1 6 10
M  V30 9 1 11 12
M  V30 10 1 11 13
M  V30 11 1 11 14
M  V30 12 1 11 15
M  V30 13 1 16 17
M  V30 14 1 16 18
M  V30 15 1 16 19
M  V30 16 1 16 20
M  V30 17 1 21 22
M  V30 18 1 21 23
M  V30 19 1 21 24
M  V30 20 1 21 25
M  V30 21 1 26 27
M  V30 22 1 26 28
M  V30 23 1 26 29
M  V30 24 1 26 30
M  V30 25 1 31 32
M  V30 26 1 31 33
M  V30 27 1 31 34
M  V30 28 1 31 35
M  V30 29 1 36 37
M  V30 30 1 36 38
M  V30 31 1 36 39
M  V30 32 1 36 40
M  V30 33 1 41 42
M  V30 34 1 41 43
M  V30 35 1 41 44
M  V30 36 1 41 45
M  V30 37 1 46 47
M  V30 38 1 47 48
M  V30 39 1 49 50
M  V30 40 1 50 51
M  V30 41 1 52 53
M  V30 42 1 53 54
M  V30 43 1 55 56
M  V30 44 1 56 57
M  V30 45 1 58 59
M  V30 46 1 59 60
M  V30 47 1 61 62
M  V30 48 1 62 63
M  V30 49 1 64 65
M  V30 50 1 65 66
M  V30 51 1 67 68
M  V30 52 1 68 69
M  V30 53 1 70 71
M  V30 54 1 71 72
M  V30 55 1 73 74
M  V30 56 1 74 75
M  V30 57 1 76 77
M  V30 58 1 77 78
M  V30 59 1 79 80
M  V30 60 1 80 81
M  V30 61 1 82 83
M  V30 62 1 83 84
M  V30 63 1 85 86
M  V30 64 1 86 87
M  V30 65 1 88 89
M  V30 66 1 89 90
M  V30 67 1 91 92
M  V30 68 1 92 93
M  V30 69 1 94 95
M  V30 70 1 95 96
M  V30 71 1 97 98
M  V30 72 1 98 99
M  V30 73 1 2 76
M  V30 74 1 3 91
M  V30 75 1 4 88
M  V30 76 1 5 67
M  V30 77 1 7 73
M  V30 78 1 8 55
M  V30 79 1 9 64
M  V30 80 1 10 52
M  V30 81 1 12 58
M  V30 82 1 13 97
M  V30 83 1 14 61
M  V30 84 1 15 49
M  V30 85 1 17 63
M  V30 86 1 18 82
M  V30 87 1 19 79
M  V30 88 1 20 85
M  V30 89 1 22 75
M  V30 90 1 23 99
M  V30 91 1 24 81
M  V30 92 1 25 46
M  V30 93 1 27 84
M  V30 94 1 28 94
M  V30 95 1 29 90
M  V30 96 1 30 87
M  V30 97 1 32 78
M  V30 98 1 33 96
M  V30 99 1 34 51
M  V30 100 1 35 60
M  V30 101 1 37 48
M  V30 102 1 38 70
M  V30 103 1 39 66
M  V30 104 1 40 69
M  V30 105 1 42 57
M  V30 106 1 43 93
M  V30 107 1 44 72
M  V30 108 1 45 54
M  V30 END BOND
M  V30 END CTAB
M  END

$$$$
