
     RDKit          3D

  0  0  0  0  0  0  0  0  0  0999 V3000
M  V30 BEGIN CTAB
M  V30 COUNTS 99 108 0 0 0
M  V30 BEGIN ATOM
M  V30 1 Pd 1.9620 3.1641 -2.7734 0
M  V30 2 Pb 1.5114 2.2778 -2.8732 0
M  V30 3 Pb 2.3610 4.0745 -2.6476 0
M  V30 4 Pb 2.6233 2.7913 -2.1182 0
M  V30 5 Pb 1.2439 3.4904 -3.3877 0
M  V30 6 Pd 4.9166 -3.1047 0.2700 0
M  V30 7 Pb 4.9558 -2.1151 0.4119 0
M  V30 8 Pb 4.6401 -3.2607 1.2179 0
M  V30 9 Pb 5.1532 -2.9037 -0.6790 0
M  V30 10 Pb 4.8009 -4.0850 0.0889 0
M  V30 11 Pd 0.1539 -7.6018 -3.0223 0
M  V30 12 Pb 0.9511 -7.8042 -2.4527 0
M  V30 13 Pb 0.7477 -7.4985 -3.8185 0
M  V30 14 Pb -0.4588 -7.6465 -2.2330 0
M  V30 15 Pb -0.5730 -7.2023 -3.5808 0
M  V30 16 Pd -0.2212 4.2426 4.4095 0
M  V30 17 Pb -1.0908 3.7517 4.3130 0
M  V30 18 Pb -0.7001 5.0791 4.1623 0
M  V30 19 Pb 0.2823 3.4389 4.7321 0
M  V30 20 Pb 0.6438 4.7515 4.3611 0
M  V30 21 Pd -4.5899 2.8269 -1.3258 0
M  V30 22 Pb -4.3375 2.9065 -2.2877 0
M  V30 23 Pb -4.6635 2.7516 -0.3269 0
M  V30 24 Pb -4.9012 1.8798 -1.4235 0
M  V30 25 Pb -4.2593 3.7677 -1.2740 0
M  V30 26 Pd -0.2925 -1.3689 5.5440 0
M  V30 27 Pb 0.2948 -0.5672 5.6430 0
M  V30 28 Pb -1.0979 -0.8053 5.6930 0
M  V30 29 Pb -0.8950 -2.1726 5.3908 0
M  V30 30 Pb 0.5183 -1.9244 5.3618 0
M  V30 31 Pd 1.0088 7.2859 0.6606 0
M  V30 32 Pb 1.6818 7.0884 -0.0563 0
M  V30 33 Pb 0.2759 7.3783 -0.0064 0
M  V30 34 Pb 0.3172 7.4768 1.3499 0
M  V30 35 Pb 1.6583 7.0902 1.3988 0
M  V30 36 Pd -4.3257 -3.7207 2.0507 0
M  V30 37 Pb -3.8061 -3.9029 2.9017 0
M  V30 38 Pb -3.9460 -4.5499 1.6362 0
M  V30 39 Pb -4.7553 -3.4342 1.1960 0
M  V30 40 Pb -4.7206 -2.9174 2.4835 0
M  V30 41 Pd 1.4128 -1.7683 -5.8870 0
M  V30 42 Pb 0.5014 -2.1628 -6.0067 0
M  V30 43 Pb 1.0471 -1.1109 -5.2273 0
M  V30 44 Pb 1.7703 -2.5539 -6.3842 0
M  V30 45 Pb 2.3485 -1.5304 -5.6419 0
M  V30 46 Ag -0.9350 -7.6493 -1.6533 0
M  V30 47 Fe -2.2970 -6.4133 -0.1487 0
M  V30 48 Ag -3.6641 -5.1905 1.3620 0
M  V30 49 Ag 5.2824 -2.6556 -1.3737 0
M  V30 50 Fe 4.2975 -2.0238 -3.4373 0
M  V30 51 Ag 3.0459 -1.4864 -5.3792 0
M  V30 52 Ag 4.6557 -4.8139 -0.0360 0
M  V30 53 Fe 3.1817 -6.4106 -1.0025 0
M  V30 54 Ag 1.5817 -7.8276 -2.0453 0
M  V30 55 Ag 4.4021 -3.3711 1.9201 0
M  V30 56 Fe 2.7921 -2.8754 3.5935 0
M  V30 57 Ag 1.1355 -2.3180 5.2007 0
M  V30 58 Ag -3.9710 4.4558 -1.3418 0
M  V30 59 Fe -2.2035 5.9833 -0.9290 0
M  V30 60 Ag -0.3552 7.3742 -0.4036 0
M  V30 61 Ag 0.6246 3.6047 -3.7951 0
M  V30 62 Fe -1.7322 3.3926 -3.6025 0
M  V30 63 Ag -3.9840 3.0607 -2.9288 0
M  V30 64 Ag 1.1423 -7.3212 -4.4285 0
M  V30 65 Fe 1.7163 -5.4152 -5.7148 0
M  V30 66 Ag 1.9889 -3.2335 -6.5981 0
M  V30 67 Ag -5.1244 1.1643 -1.4793 0
M  V30 68 Fe -5.1393 -1.0141 -0.5319 0
M  V30 69 Ag -5.0339 -3.1097 0.5813 0
M  V30 70 Ag 3.0929 2.5044 -1.6044 0
M  V30 71 Fe 4.0547 0.6045 -0.5476 0
M  V30 72 Ag 4.9539 -1.3647 0.4347 0
M  V30 73 Ag -1.0070 -6.7689 -4.0124 0
M  V30 74 Fe -0.8089 -4.6754 -5.1166 0
M  V30 75 Ag -0.1168 -2.5879 -6.0137 0
M  V30 76 Ag -1.7622 -0.4796 5.6817 0
M  V30 77 Fe -3.6755 -1.0324 4.4255 0
M  V30 78 Ag -4.9004 -2.3160 2.8770 0
M  V30 79 Ag -1.7606 3.4500 4.1426 0
M  V30 80 Fe -3.2664 3.0189 2.3497 0
M  V30 81 Ag -4.6229 2.6774 0.4232 0
M  V30 82 Ba 2.6658 4.7507 -2.5235 0
M  V30 83 Ga 2.4147 5.8486 -1.5656 0
M  V30 84 Ba 2.1714 6.9518 -0.6117 0
M  V30 85 Ba 0.7177 2.8955 5.0166 0
M  V30 86 Ga 0.6894 1.4559 5.3391 0
M  V30 87 Ba 0.7507 0.0246 5.6931 0
M  V30 88 Ba 1.2816 5.1412 4.2528 0
M  V30 89 Ga 1.7191 6.0303 3.1508 0
M  V30 90 Ba 2.0656 6.9029 2.0044 0
M  V30 91 Ba 1.0876 1.6655 -2.9597 0
M  V30 92 Ga 0.9774 0.4914 -3.8468 0
M  V30 93 Ba 0.7507 -0.7194 -4.6590 0
M  V30 94 Ba -1.3396 -2.7891 5.2994 0
M  V30 95 Ga -2.3713 -3.3596 4.3826 0
M  V30 96 Ba -3.4076 -4.0292 3.5410 0
M  V30 97 Ba -1.0174 5.7291 3.9844 0
M  V30 98 Ga -0.6692 6.6957 2.9379 0
M  V30 99 Ba -0.2223 7.5760 1.8536 0
M  V30 END ATOM
M  V30 BEGIN BOND
M  V30 1 1 1 2
M  V30 2 1 1 3
M  V30 3 1 1 4
M  V30 4 1 1 5
M  V30 5 1 6 7
M  V30 6 1 6 8
M  V30 7 1 6 9
M  V30 8 1 6 10
M  V30 9 1 11 12
M  V30 10 1 11 13
M  V30 11 1 11 14
M  V30 12 1 11 15
M  V30 13 1 16 17
M  V30 14 1 16 18
M  V30 15 1 16 19
M  V30 16 1 16 20
M  V30 17 1 21 22
M  V30 18 1 21 23
M  V30 19 1 21 24
M  V30 20 1 21 25
M  V30 21 1 26 27
M  V30 22 1 26 28
M  V30 23 1 26 29
M  V30 24 1 26 30
M  V30 25 1 31 32
M  V30 26 1 31 33
M  V30 27 1 31 34
M  V30 28 1 31 35
M  V30 29 1 36 37
M  V30 30 1 36 38
M  V30 31 1 36 39
M  V30 32 1 36 40
M  V30 33 1 41 42
M  V30 34 1 41 43
M  V30 35 1 41 44
M  V30 36 1 41 45
M  V30 37 1 46 47
M  V30 38 1 47 48
M  V30 39 1 49 50
M  V30 40 1 50 51
M  V30 41 1 52 53
M  V30 42 1 53 54
M  V30 43 1 55 56
M  V30 44 1 56 57
M  V30 45 1 58 59
M  V30 46 1 59 60
M  V30 47 1 61 62
M  V30 48 1 62 63
M  V30 49 1 64 65
M  V30 50 1 65 66
M  V30 51 1 67 68
M  V30 52 1 68 69
M  V30 53 1 70 71
M  V30 54 1 71 72
M  V30 55 1 73 74
M  V30 56 1 74 75
M  V30 57 1 76 77
M  V30 58 1 77 78
M  V30 59 1 79 80
M  V30 60 1 80 81
M  V30 61 1 82 83
M  V30 62 1 83 84
M  V30 63 1 85 86
M  V30 64 1 86 87
M  V30 65 1 88 89
M  V30 66 1 89 90
M  V30 67 1 91 92
M  V30 68 1 92 93
M  V30 69 1 94 95
M  V30 70 1 95 96
M  V30 71 1 97 98
M  V30 72 1 98 99
M  V30 73 1 2 91
M  V30 74 1 3 82
M  V30 75 1 4 70
M  V30 76 1 5 61
M  V30 77 1 7 72
M  V30 78 1 8 55
M  V30 79 1 9 49
M  V30 80 1 10 52
M  V30 81 1 12 54
M  V30 82 1 13 64
M  V30 83 1 14 46
M  V30 84 1 15 73
M  V30 85 1 17 79
M  V30 86 1 18 97
M  V30 87 1 19 85
M  V30 88 1 20 88
M  V30 89 1 22 63
M  V30 90 1 23 81
M  V30 91 1 24 67
M  V30 92 1 25 58
M  V30 93 1 27 87
M  V30 94 1 28 76
M  V30 95 1 29 94
M  V30 96 1 30 57
M  V30 97 1 32 84
M  V30 98 1 33 60
M  V30 99 1 34 99
M  V30 100 1 35 90
M  V30 101 1 37 96
M  V30 102 1 38 48
M  V30 103 1 39 69
M  V30 104 1 40 78
M  V30 105 1 42 75
M  V30 106 1 43 93
M  V30 107 1 44 66
M  V30 108 1 45 51
M  V30 END BOND
M  V30 END CTAB
M  END

$$$$
