
     RDKit          3D

  0  0  0  0  0  0  0  0  0  0999 V3000
M  V30 BEGIN CTAB
M  V30 COUNTS 99 108 0 0 0
M  V30 BEGIN ATOM
M  V30 1 Pd 0.6821 1.2725 4.5618 0
M  V30 2 Pb -0.2652 1.5763 4.6921 0
M  V30 3 Pb 1.6303 0.9861 4.4078 0
M  V30 4 Pb 0.9904 2.2120 4.4149 0
M  V30 5 Pb 0.3787 0.3288 4.6933 0
M  V30 6 Pd 5.5026 -5.7338 -0.4563 0
M  V30 7 Pb 4.9537 -5.0557 -0.9500 0
M  V30 8 Pb 6.0844 -6.4205 -0.0315 0
M  V30 9 Pb 4.7699 -6.4146 -0.4797 0
M  V30 10 Pb 6.2090 -5.0282 -0.2604 0
M  V30 11 Pd -6.5648 2.1317 -3.0530 0
M  V30 12 Pb -6.8478 1.8389 -2.1391 0
M  V30 13 Pb -6.3977 1.1858 -3.3186 0
M  V30 14 Pb -6.2510 2.3943 -3.9685 0
M  V30 15 Pb -6.7180 3.0808 -2.7728 0
M  V30 16 Pd -1.7145 2.8896 -5.3467 0
M  V30 17 Pb -2.6419 2.7797 -5.7102 0
M  V30 18 Pb -0.8126 3.0590 -4.9413 0
M  V30 19 Pb -1.4209 1.9909 -5.6837 0
M  V30 20 Pb -1.9604 3.8086 -5.0490 0
M  V30 21 Pd -0.8870 -2.6053 -3.9198 0
M  V30 22 Pb 0.0923 -2.6233 -3.7118 0
M  V30 23 Pb -1.8694 -2.5637 -4.0819 0
M  V30 24 Pb -0.7434 -1.9462 -4.6616 0
M  V30 25 Pb -1.0555 -3.2738 -3.1978 0
M  V30 26 Pd 0.4632 7.2153 -0.0514 0
M  V30 27 Pb 1.0232 6.6484 -0.6583 0
M  V30 28 Pb -0.2142 7.6478 0.5371 0
M  V30 29 Pb 0.9714 6.9257 0.7568 0
M  V30 30 Pb -0.1154 7.4099 -0.8380 0
M  V30 31 Pd -5.7986 4.3326 1.6305 0
M  V30 32 Pb -5.3615 3.9234 2.4343 0
M  V30 33 Pb -5.3349 5.1939 1.8340 0
M  V30 34 Pb -6.1822 4.7258 0.7925 0
M  V30 35 Pb -6.2529 3.4703 1.4093 0
M  V30 36 Pd 1.1530 -6.1525 2.6351 0
M  V30 37 Pb 0.4695 -6.0753 1.9130 0
M  V30 38 Pb 1.8284 -6.1748 3.3738 0
M  V30 39 Pb 1.6616 -6.7690 2.0270 0
M  V30 40 Pb 0.6540 -5.4923 3.1941 0
M  V30 41 Pd 7.2851 -3.2068 4.0420 0
M  V30 42 Pb 7.8331 -4.0345 4.1178 0
M  V30 43 Pb 6.7295 -2.3762 3.9754 0
M  V30 44 Pb 6.7651 -3.5200 4.8297 0
M  V30 45 Pb 7.6008 -3.0898 3.0882 0
M  V30 46 Ag 4.5922 -4.5361 -1.3569 0
M  V30 47 Fe 2.6805 -3.6141 -2.4276 0
M  V30 48 Ag 0.8204 -2.6221 -3.5263 0
M  V30 49 Ag -0.9819 1.7886 4.7851 0
M  V30 50 Fe -2.9961 2.7064 3.9153 0
M  V30 51 Ag -4.9994 3.6273 3.0237 0
M  V30 52 Ag -1.2033 -3.7789 -2.6657 0
M  V30 53 Fe -0.6279 -4.8979 -0.6544 0
M  V30 54 Ag -0.0256 -5.9995 1.3585 0
M  V30 55 Ag -0.1749 3.2658 -4.5972 0
M  V30 56 Fe 0.7166 4.6743 -2.8999 0
M  V30 57 Ag 1.3259 6.1686 -1.1523 0
M  V30 58 Ag 6.5585 -6.8265 0.3673 0
M  V30 59 Fe 7.7039 -6.2671 2.3426 0
M  V30 60 Ag 8.1393 -4.7039 4.0429 0
M  V30 61 Ag -2.0712 4.5077 -4.8121 0
M  V30 62 Fe -1.4177 6.0999 -3.1832 0
M  V30 63 Ag -0.5702 7.4463 -1.4273 0
M  V30 64 Ag 1.2563 2.8996 4.2785 0
M  V30 65 Fe 1.3187 4.8119 2.8737 0
M  V30 66 Ag 1.2810 6.6584 1.3829 0
M  V30 67 Ag 0.1279 -0.3722 4.7831 0
M  V30 68 Fe 0.2017 -2.6766 4.2165 0
M  V30 69 Ag 0.3190 -4.9698 3.6128 0
M  V30 70 Ag 2.2899 -6.0854 3.9604 0
M  V30 71 Fe 4.2544 -5.0489 4.7986 0
M  V30 72 Ag 6.2774 -3.8936 5.2517 0
M  V30 73 Ag 2.3555 0.8412 4.2688 0
M  V30 74 Fe 4.3021 -0.5151 4.1203 0
M  V30 75 Ag 6.3279 -1.7433 3.9231 0
M  V30 76 Ag -0.8031 7.8523 0.9466 0
M  V30 77 Fe -2.9225 6.9815 1.5577 0
M  V30 78 Ag -4.9502 5.8221 1.9689 0
M  V30 79 Ag -6.2273 0.4929 -3.5378 0
M  V30 80 Fe -4.4818 -1.0734 -3.8823 0
M  V30 81 Ag -2.6088 -2.4994 -4.1603 0
M  V30 82 Ba -1.1594 1.3450 -5.9711 0
M  V30 83 Ga -0.9257 -0.0571 -5.5622 0
M  V30 84 Ba -0.6569 -1.4761 -5.2429 0
M  V30 85 Ba -6.8377 3.7780 -2.5189 0
M  V30 86 Ga -6.6513 4.4097 -1.1962 0
M  V30 87 Ba -6.4479 4.9984 0.1439 0
M  V30 88 Ba 6.7352 -4.4982 -0.0815 0
M  V30 89 Ga 7.2405 -3.7939 1.1389 0
M  V30 90 Ba 7.7651 -3.0746 2.3423 0
M  V30 91 Ba -7.0430 1.6268 -1.4462 0
M  V30 92 Ga -6.8326 2.2108 -0.1083 0
M  V30 93 Ba -6.5963 2.8358 1.2066 0
M  V30 94 Ba -6.0041 2.5205 -4.6688 0
M  V30 95 Ga -4.6778 2.6428 -5.3122 0
M  V30 96 Ba -3.3526 2.7658 -5.9575 0
M  V30 97 Ba 4.2421 -6.9424 -0.3929 0
M  V30 98 Ga 3.1103 -7.0796 0.5505 0
M  V30 99 Ba 1.9835 -7.2050 1.5015 0
M  V30 END ATOM
M  V30 BEGIN BOND
M  V30 1 1 1 2
M  V30 2 1 1 3
M  V30 3 1 1 4
M  V30 4 1 1 5
M  V30 5 1 6 7
M  V30 6 1 6 8
M  V30 7 1 6 9
M  V30 8 1 6 10
M  V30 9 1 11 12
M  V30 10 1 11 13
M  V30 11 1 11 14
M  V30 12 1 11 15
M  V30 13 1 16 17
M  V30 14 1 16 18
M  V30 15 1 16 19
M  V30 16 1 16 20
M  V30 17 1 21 22
M  V30 18 1 21 23
M  V30 19 1 21 24
M  V30 20 1 21 25
M  V30 21 1 26 27
M  V30 22 1 26 28
M  V30 23 1 26 29
M  V30 24 1 26 30
M  V30 25 1 31 32
M  V30 26 1 31 33
M  V30 27 1 31 34
M  V30 28 1 31 35
M  V30 29 1 36 37
M  V30 30 1 36 38
M  V30 31 1 36 39
M  V30 32 1 36 40
M  V30 33 1 41 42
M  V30 34 1 41 43
M  V30 35 1 41 44
M  V30 36 1 41 45
M  V30 37 1 46 47
M  V30 38 1 47 48
M  V30 39 1 49 50
M  V30 40 1 50 51
M  V30 41 1 52 53
M  V30 42 1 53 54
M  V30 43 1 55 56
M  V30 44 1 56 57
M  V30 45 1 58 59
M  V30 46 1 59 60
M  V30 47 1 61 62
M  V30 48 1 62 63
M  V30 49 1 64 65
M  V30 50 1 65 66
M  V30 51 1 67 68
M  V30 52 1 68 69
M  V30 53 1 70 71
M  V30 54 1 71 72
M  V30 55 1 73 74
M  V30 56 1 74 75
M  V30 57 1 76 77
M  V30 58 1 77 78
M  V30 59 1 79 80
M  V30 60 1 80 81
M  V30 61 1 82 83
M  V30 62 1 83 84
M  V30 63 1 85 86
M  V30 64 1 86 87
M  V30 65 1 88 89
M  V30 66 1 89 90
M  V30 67 1 91 92
M  V30 68 1 92 93
M  V30 69 1 94 95
M  V30 70 1 95 96
M  V30 71 1 97 98
M  V30 72 1 98 99
M  V30 73 1 2 49
M  V30 74 1 3 73
M  V30 75 1 4 64
M  V30 76 1 5 67
M  V30 77 1 7 46
M  V30 78 1 8 58
M  V30 79 1 9 97
M  V30 80 1 10 88
M  V30 81 1 12 91
M  V30 82 1 13 79
M  V30 83 1 14 94
M  V30 84 1 15 85
M  V30 85 1 17 96
M  V30 86 1 18 55
M  V30 87 1 19 82
M  V30 88 1 20 61
M  V30 89 1 22 48
M  V30 90 1 23 81
M  V30 91 1 24 84
M  V30 92 1 25 52
M  V30 93 1 27 57
M  V30 94 1 28 76
M  V30 95 1 29 66
M  V30 96 1 30 63
M  V30 97 1 32 51
M  V30 98 1 33 78
M  V30 99 1 34 87
M  V30 100 1 35 93
M  V30 101 1 37 54
M  V30 102 1 38 70
M  V30 103 1 39 99
M  V30 104 1 40 69
M  V30 105 1 42 60
M  V30 106 1 43 75
M  V30 107 1 44 72
M  V30 108 1 45 90
M  V30 END BOND
M  V30 END CTAB
M  END

$$$$
