
     RDKit          3D

  0  0  0  0  0  0  0  0  0  0999 V3000
M  V30 BEGIN CTAB
M  V30 COUNTS 99 108 0 0 0
M  V30 BEGIN ATOM
M  V30 1 Pd -3.5127 -1.6522 1.5332 0
M  V30 2 Pb -3.6164 -1.4307 0.5675 0
M  V30 3 Pb -4.3313 -2.2137 1.4154 0
M  V30 4 Pb -2.6654 -1.1177 1.5500 0
M  V30 5 Pb -3.4166 -1.8764 2.5070 0
M  V30 6 Pd -0.0686 2.7727 3.5572 0
M  V30 7 Pb 0.7635 2.2910 3.8318 0
M  V30 8 Pb 0.1851 3.5109 4.1803 0
M  V30 9 Pb -0.2647 2.0357 2.9081 0
M  V30 10 Pb -0.8139 3.3439 3.2125 0
M  V30 11 Pd 3.8738 5.0177 2.6587 0
M  V30 12 Pb 4.2783 4.6749 1.8096 0
M  V30 13 Pb 3.3932 5.3124 3.4821 0
M  V30 14 Pb 3.6554 5.8992 2.2453 0
M  V30 15 Pb 3.9728 4.1120 3.0720 0
M  V30 16 Pd -1.1849 2.0865 -4.7742 0
M  V30 17 Pb -0.5030 2.7143 -5.1341 0
M  V30 18 Pb -0.8569 1.3506 -5.3624 0
M  V30 19 Pb -1.5188 2.8145 -4.1529 0
M  V30 20 Pb -1.8601 1.4618 -4.3943 0
M  V30 21 Pd 4.0152 -1.4266 -0.4498 0
M  V30 22 Pb 4.1487 -1.0111 0.4387 0
M  V30 23 Pb 3.9348 -1.8066 -1.3772 0
M  V30 24 Pb 4.3597 -0.5634 -0.8171 0
M  V30 25 Pb 3.6356 -2.2606 0.0093 0
M  V30 26 Pd -0.1498 6.2450 -0.5679 0
M  V30 27 Pb -0.7971 5.7326 -1.1557 0
M  V30 28 Pb 0.4093 6.4312 -1.3689 0
M  V30 29 Pb 0.5099 6.7668 -0.0241 0
M  V30 30 Pb -0.7319 6.0267 0.2212 0
M  V30 31 Pd -3.9449 -6.0174 -1.3409 0
M  V30 32 Pb -3.2771 -6.7059 -1.5863 0
M  V30 33 Pb -3.9321 -6.4255 -0.4364 0
M  V30 34 Pb -3.7535 -5.5165 -2.2108 0
M  V30 35 Pb -4.6158 -5.3527 -1.0022 0
M  V30 36 Pd 0.4088 -3.6610 3.8252 0
M  V30 37 Pb -0.1454 -4.4361 3.5319 0
M  V30 38 Pb 1.1365 -3.8429 3.1266 0
M  V30 39 Pb -0.3758 -3.3920 4.3799 0
M  V30 40 Pb 0.9414 -2.9157 4.2017 0
M  V30 41 Pd 0.4475 -3.4019 -4.3796 0
M  V30 42 Pb 0.2458 -2.5895 -4.9313 0
M  V30 43 Pb -0.5425 -3.6713 -4.3480 0
M  V30 44 Pb 0.7061 -4.2767 -3.9968 0
M  V30 45 Pb 1.4130 -3.1424 -4.3266 0
M  V30 46 Ag -2.6845 -7.1137 -1.7421 0
M  V30 47 Fe -0.6406 -6.5072 -2.7233 0
M  V30 48 Ag 0.7975 -4.9680 -3.7592 0
M  V30 49 Ag -0.0139 3.2557 -5.2623 0
M  V30 50 Fe 0.6869 5.0644 -3.9225 0
M  V30 51 Ag 0.7655 6.4529 -2.0187 0
M  V30 52 Ag 4.5315 4.3543 1.1793 0
M  V30 53 Fe 4.6429 2.3069 -0.0202 0
M  V30 54 Ag 4.5972 0.1306 -0.9709 0
M  V30 55 Ag -3.7493 -6.6510 0.2466 0
M  V30 56 Fe -2.2309 -5.9412 1.9200 0
M  V30 57 Ag -0.6265 -4.9878 3.3794 0
M  V30 58 Ag -3.7158 -1.2777 -0.1562 0
M  V30 59 Fe -3.0542 -0.1530 -2.1347 0
M  V30 60 Ag -2.3516 0.9941 -4.0860 0
M  V30 61 Ag 4.1755 -0.7400 1.1237 0
M  V30 62 Fe 2.9910 -1.2117 3.0965 0
M  V30 63 Ag 1.3975 -2.3653 4.3791 0
M  V30 64 Ba -4.9265 -2.6176 1.2006 0
M  V30 65 Ga -5.0455 -3.7670 0.2775 0
M  V30 66 Ba -5.1205 -4.9144 -0.6529 0
M  V30 67 Ba -0.6286 0.7842 -5.7936 0
M  V30 68 Ga -0.2485 -0.6233 -5.5642 0
M  V30 69 Ba 0.1460 -2.0393 -5.4358 0
M  V30 70 Ba -3.3211 -2.0331 3.2382 0
M  V30 71 Ga -2.1992 -2.5980 4.0154 0
M  V30 72 Ba -1.0192 -3.1723 4.6927 0
M  V30 73 Ba -1.8235 3.3421 -3.6934 0
M  V30 74 Ga -1.4832 4.3444 -2.6438 0
M  V30 75 Ba -1.3201 5.3848 -1.5889 0
M  V30 76 Ba -1.3154 3.8387 2.9528 0
M  V30 77 Ga -1.2675 4.8341 1.8595 0
M  V30 78 Ba -1.2150 5.8301 0.7669 0
M  V30 79 Ba 0.4449 4.0666 4.6091 0
M  V30 80 Ga 1.6885 4.8311 4.4263 0
M  V30 81 Ba 2.9625 5.4750 4.0710 0
M  V30 82 Ba 3.9376 -2.0381 -2.0965 0
M  V30 83 Ga 3.0109 -2.5076 -3.1502 0
M  V30 84 Ba 2.1435 -2.9836 -4.2507 0
M  V30 85 Ba 1.4407 2.0108 3.9906 0
M  V30 86 Ga 2.7466 2.6451 3.7280 0
M  V30 87 Ba 3.9474 3.4325 3.3894 0
M  V30 88 Ba -3.5692 -5.1424 -2.8614 0
M  V30 89 Ga -2.3850 -4.5157 -3.5465 0
M  V30 90 Ba -1.2966 -3.8537 -4.3471 0
M  V30 91 Ba 3.3894 -2.8944 0.3809 0
M  V30 92 Ga 2.4933 -3.3655 1.4942 0
M  V30 93 Ba 1.6525 -3.9986 2.5697 0
M  V30 94 Ba -2.0150 -0.7494 1.4671 0
M  V30 95 Ga -1.2330 0.3843 2.0008 0
M  V30 96 Ba -0.3263 1.4759 2.4107 0
M  V30 97 Ba 3.4084 6.5489 1.9680 0
M  V30 98 Ga 2.2305 6.8768 1.1422 0
M  V30 99 Ba 1.0433 7.1722 0.3174 0
M  V30 END ATOM
M  V30 BEGIN BOND
M  V30 1 1 1 2
M  V30 2 1 1 3
M  V30 3 1 1 4
M  V30 4 1 1 5
M  V30 5 1 6 7
M  V30 6 1 6 8
M  V30 7 1 6 9
M  V30 8 1 6 10
M  V30 9 1 11 12
M  V30 10 1 11 13
M  V30 11 1 11 14
M  V30 12 1 11 15
M  V30 13 1 16 17
M  V30 14 1 16 18
M  V30 15 1 16 19
M  V30 16 1 16 20
M  V30 17 1 21 22
M  V30 18 1 21 23
M  V30 19 1 21 24
M  V30 20 1 21 25
M  V30 21 1 26 27
M  V30 22 1 26 28
M  V30 23 1 26 29
M  V30 24 1 26 30
M  V30 25 1 31 32
M  V30 26 1 31 33
M  V30 27 1 31 34
M  V30 28 1 31 35
M  V30 29 1 36 37
M  V30 30 1 36 38
M  V30 31 1 36 39
M  V30 32 1 36 40
M  V30 33 1 41 42
M  V30 34 1 41 43
M  V30 35 1 41 44
M  V30 36 1 41 45
M  V30 37 1 46 47
M  V30 38 1 47 48
M  V30 39 1 49 50
M  V30 40 1 50 51
M  V30 41 1 52 53
M  V30 42 1 53 54
M  V30 43 1 55 56
M  V30 44 1 56 57
M  V30 45 1 58 59
M  V30 46 1 59 60
M  V30 47 1 61 62
M  V30 48 1 62 63
M  V30 49 1 64 65
M  V30 50 1 65 66
M  V30 51 1 67 68
M  V30 52 1 68 69
M  V30 53 1 70 71
M  V30 54 1 71 72
M  V30 55 1 73 74
M  V30 56 1 74 75
M  V30 57 1 76 77
M  V30 58 1 77 78
M  V30 59 1 79 80
M  V30 60 1 80 81
M  V30 61 1 82 83
M  V30 62 1 83 84
M  V30 63 1 85 86
M  V30 64 1 86 87
M  V30 65 1 88 89
M  V30 66 1 89 90
M  V30 67 1 91 92
M  V30 68 1 92 93
M  V30 69 1 94 95
M  V30 70 1 95 96
M  V30 71 1 97 98
M  V30 72 1 98 99
M  V30 73 1 2 58
M  V30 74 1 3 64
M  V30 75 1 4 94
M  V30 76 1 5 70
M  V30 77 1 7 85
M  V30 78 1 8 79
M  V30 79 1 9 96
M  V30 80 1 10 76
M  V30 81 1 12 52
M  V30 82 1 13 81
M  V30 83 1 14 97
M  V30 84 1 15 87
M  V30 85 1 17 49
M  V30 86 1 18 67
M  V30 87 1 19 73
M  V30 88 1 20 60
M  V30 89 1 22 61
M  V30 90 1 23 82
M  V30 91 1 24 54
M  V30 92 1 25 91
M  V30 93 1 27 75
M  V30 94 1 28 51
M  V30 95 1 29 99
M  V30 96 1 30 78
M  V30 97 1 32 46
M  V30 98 1 33 55
M  V30 99 1 34 88
M  V30 100 1 35 66
M  V30 101 1 37 57
M  V30 102 1 38 93
M  V30 103 1 39 72
M  V30 104 1 40 63
M  V30 105 1 42 69
M  V30 106 1 43 90
M  V30 107 1 44 48
M  V30 108 1 45 84
M  V30 END BOND
M  V30 END CTAB
M  END

$$$$
