
     RDKit          3D

  0  0  0  0  0  0  0  0  0  0999 V3000
M  V30 BEGIN CTAB
M  V30 COUNTS 99 108 0 0 0
M  V30 BEGIN ATOM
M  V30 1 Pd -4.8748 2.7083 -0.0333 0
M  V30 2 Pb -4.9316 2.1658 0.8075 0
M  V30 3 Pb -4.8019 3.2578 -0.8631 0
M  V30 4 Pb -5.8553 2.6055 -0.2201 0
M  V30 5 Pb -3.8895 2.7999 0.1043 0
M  V30 6 Pd -6.7624 1.4863 -4.4461 0
M  V30 7 Pb -7.2297 0.6139 -4.5811 0
M  V30 8 Pb -7.3698 1.7305 -3.6893 0
M  V30 9 Pb -6.2656 2.3366 -4.2937 0
M  V30 10 Pb -6.0554 1.1768 -5.0798 0
M  V30 11 Pd 4.5066 -4.5006 0.5659 0
M  V30 12 Pb 4.7967 -4.5677 1.5227 0
M  V30 13 Pb 4.1504 -4.3189 -0.3523 0
M  V30 14 Pb 5.3128 -3.9614 0.3328 0
M  V30 15 Pb 3.6899 -5.0167 0.8135 0
M  V30 16 Pd 7.1263 2.3360 1.4666 0
M  V30 17 Pb 7.1987 2.9160 0.6514 0
M  V30 18 Pb 6.9903 1.7505 2.2674 0
M  V30 19 Pb 6.8036 3.1320 1.9724 0
M  V30 20 Pb 7.4151 1.5255 0.9637 0
M  V30 21 Pd -2.2028 -3.3961 3.5650 0
M  V30 22 Pb -1.4919 -3.0763 4.1947 0
M  V30 23 Pb -2.9087 -3.7344 2.9465 0
M  V30 24 Pb -1.6191 -4.1624 3.3081 0
M  V30 25 Pb -2.7772 -2.5956 3.7406 0
M  V30 26 Pd -4.5478 -2.6122 -3.3529 0
M  V30 27 Pb -5.4460 -2.6459 -3.7874 0
M  V30 28 Pb -3.6922 -2.5302 -2.8372 0
M  V30 29 Pb -4.2351 -2.0346 -4.1090 0
M  V30 30 Pb -4.8682 -3.1622 -2.5871 0
M  V30 31 Pd 3.2645 -1.1703 4.2334 0
M  V30 32 Pb 2.4035 -1.5743 4.5586 0
M  V30 33 Pb 2.7660 -0.3269 4.0238 0
M  V30 34 Pb 3.7524 -2.0391 4.3512 0
M  V30 35 Pb 4.1596 -0.7357 4.0829 0
M  V30 36 Pd 0.0556 0.5347 -1.9934 0
M  V30 37 Pb 0.5855 1.2946 -2.3697 0
M  V30 38 Pb 0.6032 -0.1451 -2.4825 0
M  V30 39 Pb -0.4126 1.1912 -1.3968 0
M  V30 40 Pb -0.4805 -0.2385 -1.6581 0
M  V30 41 Pd 3.3565 4.6672 -0.1834 0
M  V30 42 Pb 3.8072 4.9881 0.6465 0
M  V30 43 Pb 4.2010 4.8484 -0.6849 0
M  V30 44 Pb 2.6121 4.3367 0.3927 0
M  V30 45 Pb 2.9275 4.3311 -1.0227 0
M  V30 46 Ag 5.8885 -3.5203 0.1521 0
M  V30 47 Fe 6.8285 -1.3507 0.3288 0
M  V30 48 Ag 7.5825 0.8762 0.6358 0
M  V30 49 Ag 2.3646 0.2730 3.8126 0
M  V30 50 Fe 2.1564 2.1705 2.3985 0
M  V30 51 Ag 2.1679 4.0143 0.9012 0
M  V30 52 Ag -3.4321 -3.9731 2.4694 0
M  V30 53 Fe -4.3233 -3.8379 0.2768 0
M  V30 54 Ag -5.0336 -3.5376 -1.9646 0
M  V30 55 Ag 3.0767 -5.3719 1.0503 0
M  V30 56 Fe 0.9417 -5.1360 2.0548 0
M  V30 57 Ag -1.1599 -4.6974 3.0618 0
M  V30 58 Ag -4.9312 1.7666 1.4451 0
M  V30 59 Fe -4.1092 -0.0983 2.6685 0
M  V30 60 Ag -3.2243 -1.9947 3.7958 0
M  V30 61 Ag 3.8671 -4.0896 -1.0097 0
M  V30 62 Fe 2.4667 -2.4534 -2.0151 0
M  V30 63 Ag 1.0220 -0.7118 -2.7420 0
M  V30 64 Ba 0.9558 1.8781 -2.6608 0
M  V30 65 Ga 1.7977 2.9743 -2.1442 0
M  V30 66 Ba 2.6439 4.0878 -1.6740 0
M  V30 67 Ba -5.4861 0.8808 -5.4660 0
M  V30 68 Ga -4.7290 -0.3432 -5.1412 0
M  V30 69 Ba -4.0712 -1.5839 -4.6878 0
M  V30 70 Ba -4.7661 3.6502 -1.4987 0
M  V30 71 Ga -5.3008 3.3605 -2.8372 0
M  V30 72 Ba -5.8838 2.9551 -4.1244 0
M  V30 73 Ba 6.5128 3.7364 2.2997 0
M  V30 74 Ga 5.3533 4.5212 1.8554 0
M  V30 75 Ba 4.1816 5.1804 1.2635 0
M  V30 76 Ba -6.5791 2.5441 -0.4211 0
M  V30 77 Ga -7.2146 2.2273 -1.7185 0
M  V30 78 Ba -7.7438 1.8989 -3.0599 0
M  V30 79 Ba -3.1496 2.8745 0.1940 0
M  V30 80 Ga -1.9397 2.2585 -0.3867 0
M  V30 81 Ba -0.6761 1.7019 -0.9098 0
M  V30 82 Ba -7.5140 -0.0710 -4.6834 0
M  V30 83 Ga -6.8895 -1.3768 -4.4145 0
M  V30 84 Ba -6.1288 -2.5942 -4.0887 0
M  V30 85 Ba 4.9506 -4.5757 2.2593 0
M  V30 86 Ga 4.5658 -3.6504 3.3481 0
M  V30 87 Ba 4.1442 -2.6820 4.3846 0
M  V30 88 Ba -3.1208 -2.5056 -2.3474 0
M  V30 89 Ga -1.9882 -1.6519 -1.9363 0
M  V30 90 Ba -0.8335 -0.8672 -1.4546 0
M  V30 91 Ba -0.9645 -2.8773 4.6922 0
M  V30 92 Ga 0.4170 -2.3480 4.7181 0
M  V30 93 Ba 1.7880 -1.8284 4.9149 0
M  V30 94 Ba 7.1930 3.3771 0.0560 0
M  V30 95 Ga 6.0891 4.1673 -0.5264 0
M  V30 96 Ba 4.8858 4.8900 -0.9861 0
M  V30 97 Ba 6.8953 1.2940 2.8565 0
M  V30 98 Ga 5.8268 0.4384 3.4200 0
M  V30 99 Ba 4.8628 -0.4569 4.0976 0
M  V30 END ATOM
M  V30 BEGIN BOND
M  V30 1 1 1 2
M  V30 2 1 1 3
M  V30 3 1 1 4
M  V30 4 1 1 5
M  V30 5 1 6 7
M  V30 6 1 6 8
M  V30 7 1 6 9
M  V30 8 1 6 10
M  V30 9 1 11 12
M  V30 10 1 11 13
M  V30 11 1 11 14
M  V30 12 1 11 15
M  V30 13 1 16 17
M  V30 14 1 16 18
M  V30 15 1 16 19
M  V30 16 1 16 20
M  V30 17 1 21 22
M  V30 18 1 21 23
M  V30 19 1 21 24
M  V30 20 1 21 25
M  V30 21 1 26 27
M  V30 22 1 26 28
M  V30 23 1 26 29
M  V30 24 1 26 30
M  V30 25 1 31 32
M  V30 26 1 31 33
M  V30 27 1 31 34
M  V30 28 1 31 35
M  V30 29 1 36 37
M  V30 30 1 36 38
M  V30 31 1 36 39
M  V30 32 1 36 40
M  V30 33 1 41 42
M  V30 34 1 41 43
M  V30 35 1 41 44
M  V30 36 1 41 45
M  V30 37 1 46 47
M  V30 38 1 47 48
M  V30 39 1 49 50
M  V30 40 1 50 51
M  V30 41 1 52 53
M  V30 42 1 53 54
M  V30 43 1 55 56
M  V30 44 1 56 57
M  V30 45 1 58 59
M  V30 46 1 59 60
M  V30 47 1 61 62
M  V30 48 1 62 63
M  V30 49 1 64 65
M  V30 50 1 65 66
M  V30 51 1 67 68
M  V30 52 1 68 69
M  V30 53 1 70 71
M  V30 54 1 71 72
M  V30 55 1 73 74
M  V30 56 1 74 75
M  V30 57 1 76 77
M  V30 58 1 77 78
M  V30 59 1 79 80
M  V30 60 1 80 81
M  V30 61 1 82 83
M  V30 62 1 83 84
M  V30 63 1 85 86
M  V30 64 1 86 87
M  V30 65 1 88 89
M  V30 66 1 89 90
M  V30 67 1 91 92
M  V30 68 1 92 93
M  V30 69 1 94 95
M  V30 70 1 95 96
M  V30 71 1 97 98
M  V30 72 1 98 99
M  V30 73 1 2 58
M  V30 74 1 3 70
M  V30 75 1 4 76
M  V30 76 1 5 79
M  V30 77 1 7 82
M  V30 78 1 8 78
M  V30 79 1 9 72
M  V30 80 1 10 67
M  V30 81 1 12 85
M  V30 82 1 13 61
M  V30 83 1 14 46
M  V30 84 1 15 55
M  V30 85 1 17 94
M  V30 86 1 18 97
M  V30 87 1 19 73
M  V30 88 1 20 48
M  V30 89 1 22 91
M  V30 90 1 23 52
M  V30 91 1 24 57
M  V30 92 1 25 60
M  V30 93 1 27 84
M  V30 94 1 28 88
M  V30 95 1 29 69
M  V30 96 1 30 54
M  V30 97 1 32 93
M  V30 98 1 33 49
M  V30 99 1 34 87
M  V30 100 1 35 99
M  V30 101 1 37 64
M  V30 102 1 38 63
M  V30 103 1 39 81
M  V30 104 1 40 90
M  V30 105 1 42 75
M  V30 106 1 43 96
M  V30 107 1 44 51
M  V30 108 1 45 66
M  V30 END BOND
M  V30 END CTAB
M  END

$$$$
