
     RDKit          3D

  0  0  0  0  0  0  0  0  0  0999 V3000
M  V30 BEGIN CTAB
M  V30 COUNTS 99 108 0 0 0
M  V30 BEGIN ATOM
M  V30 1 Pd 6.9712 1.0116 1.6865 0
M  V30 2 Pb 6.6377 1.1560 2.6162 0
M  V30 3 Pb 6.1439 1.4033 1.2854 0
M  V30 4 Pb 7.7197 0.4276 1.9985 0
M  V30 5 Pb 7.2570 0.7873 0.7472 0
M  V30 6 Pd -0.7878 2.1397 -5.1411 0
M  V30 7 Pb -0.1764 2.9512 -5.1943 0
M  V30 8 Pb -1.4018 1.3817 -4.9293 0
M  V30 9 Pb -1.5710 2.7391 -5.2689 0
M  V30 10 Pb -0.0268 1.4997 -5.0357 0
M  V30 11 Pd 5.9772 -3.1257 -1.8005 0
M  V30 12 Pb 6.5172 -2.2762 -1.8357 0
M  V30 13 Pb 5.4202 -3.9456 -1.6813 0
M  V30 14 Pb 6.7658 -3.5467 -1.3539 0
M  V30 15 Pb 5.1871 -2.5732 -2.0636 0
M  V30 16 Pd -4.2752 -4.2645 0.8928 0
M  V30 17 Pb -4.5534 -4.4218 1.8473 0
M  V30 18 Pb -3.9429 -4.0157 -0.0161 0
M  V30 19 Pb -3.3550 -4.5731 1.1388 0
M  V30 20 Pb -5.2035 -4.0595 0.5636 0
M  V30 21 Pd -4.4770 -0.8576 4.4308 0
M  V30 22 Pb -3.4763 -0.8361 4.4402 0
M  V30 23 Pb -5.4581 -0.8179 4.5811 0
M  V30 24 Pb -4.4946 -1.8108 4.7315 0
M  V30 25 Pb -4.5288 -0.0138 3.8651 0
M  V30 26 Pd -6.5772 -0.0540 -0.4921 0
M  V30 27 Pb -6.9886 -0.8919 -0.8348 0
M  V30 28 Pb -5.8030 -0.2074 -1.1076 0
M  V30 29 Pb -6.0737 0.5995 0.1003 0
M  V30 30 Pb -7.4014 0.0900 0.0453 0
M  V30 31 Pd 0.5794 -4.2292 -1.5314 0
M  V30 32 Pb 0.2007 -4.6937 -0.7300 0
M  V30 33 Pb -0.3266 -3.8618 -1.7398 0
M  V30 34 Pb 0.9723 -3.6671 -2.2599 0
M  V30 35 Pb 1.4612 -4.6792 -1.3876 0
M  V30 36 Pd 2.3413 2.9413 3.8173 0
M  V30 37 Pb 1.7739 2.2058 4.1900 0
M  V30 38 Pb 2.8860 3.5897 3.2883 0
M  V30 39 Pb 3.1675 2.4797 4.1399 0
M  V30 40 Pb 1.5460 3.4851 3.5480 0
M  V30 41 Pd 0.4110 6.6593 -1.9937 0
M  V30 42 Pb 0.0588 6.7743 -1.0676 0
M  V30 43 Pb 1.2927 6.4495 -1.5709 0
M  V30 44 Pb -0.4754 6.8934 -2.3792 0
M  V30 45 Pb 0.7048 6.3133 -2.9020 0
M  V30 46 Ag -2.7341 -0.7906 4.5489 0
M  V30 47 Fe -0.6908 0.4200 4.4569 0
M  V30 48 Ag 1.3703 1.6012 4.3805 0
M  V30 49 Ag -1.8437 0.8324 -4.6773 0
M  V30 50 Fe -3.5690 0.2292 -3.1602 0
M  V30 51 Ag -5.2906 -0.3630 -1.6347 0
M  V30 52 Ag 5.5380 1.4781 0.8544 0
M  V30 53 Fe 4.7181 -0.0307 -0.7773 0
M  V30 54 Ag 4.6985 -2.0081 -2.0813 0
M  V30 55 Ag 0.4801 0.9523 -4.9572 0
M  V30 56 Fe 0.9508 -1.1225 -3.9004 0
M  V30 57 Ag 1.2566 -3.1828 -2.7581 0
M  V30 58 Ag 3.2105 4.0380 2.7840 0
M  V30 59 Fe 2.7094 5.2280 0.7913 0
M  V30 60 Ag 1.9076 6.3112 -1.1637 0
M  V30 61 Ag 1.0251 3.9803 3.3314 0
M  V30 62 Fe 0.3070 5.4026 1.5709 0
M  V30 63 Ag -0.1753 6.6951 -0.3615 0
M  V30 64 Ag 8.1808 -0.1582 2.0485 0
M  V30 65 Fe 8.1430 -2.1494 0.7660 0
M  V30 66 Ag 7.3447 -3.6420 -0.8910 0
M  V30 67 Ag -2.0838 3.2726 -5.2760 0
M  V30 68 Fe -2.1100 5.3456 -4.1654 0
M  V30 69 Ag -1.1234 6.9296 -2.7344 0
M  V30 70 Ag -6.1920 -0.7309 4.5984 0
M  V30 71 Fe -7.6867 -0.2428 2.8575 0
M  V30 72 Ag -7.9346 0.1268 0.5549 0
M  V30 73 Ba 7.4579 0.5994 0.0416 0
M  V30 74 Ga 7.1792 -0.5236 -0.8893 0
M  V30 75 Ba 6.9179 -1.6335 -1.8409 0
M  V30 76 Ba -2.6793 -4.8633 1.2933 0
M  V30 77 Ga -1.3774 -4.9233 0.5985 0
M  V30 78 Ba -0.0747 -4.9842 -0.0946 0
M  V30 79 Ba 6.3601 1.2258 3.3077 0
M  V30 80 Ga 5.0782 1.7028 3.8569 0
M  V30 81 Ba 3.7979 2.1776 4.4120 0
M  V30 82 Ba -3.6823 -3.7756 -0.6764 0
M  V30 83 Ga -2.3492 -3.7055 -1.3026 0
M  V30 84 Ba -1.0160 -3.6352 -1.9284 0
M  V30 85 Ba -4.5879 0.5738 3.3723 0
M  V30 86 Ga -5.1490 0.7884 1.9970 0
M  V30 87 Ba -5.7037 1.0241 0.6226 0
M  V30 88 Ba 0.2657 3.5787 -5.2142 0
M  V30 89 Ga 0.5603 4.7793 -4.3688 0
M  V30 90 Ba 0.9014 6.0022 -3.5745 0
M  V30 91 Ba -5.8660 -3.9498 0.2140 0
M  V30 92 Ga -6.5848 -2.8019 -0.3801 0
M  V30 93 Ba -7.2318 -1.5912 -0.9290 0
M  V30 94 Ba -4.6738 -4.5107 2.5897 0
M  V30 95 Ga -4.6347 -3.5752 3.7394 0
M  V30 96 Ba -4.5792 -2.5532 4.8119 0
M  V30 97 Ba 4.9968 -4.5484 -1.5490 0
M  V30 98 Ga 3.5472 -4.7926 -1.4355 0
M  V30 99 Ba 2.1027 -5.0623 -1.3156 0
M  V30 END ATOM
M  V30 BEGIN BOND
M  V30 1 1 1 2
M  V30 2 1 1 3
M  V30 3 1 1 4
M  V30 4 1 1 5
M  V30 5 1 6 7
M  V30 6 1 6 8
M  V30 7 1 6 9
M  V30 8 1 6 10
M  V30 9 1 11 12
M  V30 10 1 11 13
M  V30 11 1 11 14
M  V30 12 1 11 15
M  V30 13 1 16 17
M  V30 14 1 16 18
M  V30 15 1 16 19
M  V30 16 1 16 20
M  V30 17 1 21 22
M  V30 18 1 21 23
M  V30 19 1 21 24
M  V30 20 1 21 25
M  V30 21 1 26 27
M  V30 22 1 26 28
M  V30 23 1 26 29
M  V30 24 1 26 30
M  V30 25 1 31 32
M  V30 26 1 31 33
M  V30 27 1 31 34
M  V30 28 1 31 35
M  V30 29 1 36 37
M  V30 30 1 36 38
M  V30 31 1 36 39
M  V30 32 1 36 40
M  V30 33 1 41 42
M  V30 34 1 41 43
M  V30 35 1 41 44
M  V30 36 1 41 45
M  V30 37 1 46 47
M  V30 38 1 47 48
M  V30 39 1 49 50
M  V30 40 1 50 51
M  V30 41 1 52 53
M  V30 42 1 53 54
M  V30 43 1 55 56
M  V30 44 1 56 57
M  V30 45 1 58 59
M  V30 46 1 59 60
M  V30 47 1 61 62
M  V30 48 1 62 63
M  V30 49 1 64 65
M  V30 50 1 65 66
M  V30 51 1 67 68
M  V30 52 1 68 69
M  V30 53 1 70 71
M  V30 54 1 71 72
M  V30 55 1 73 74
M  V30 56 1 74 75
M  V30 57 1 76 77
M  V30 58 1 77 78
M  V30 59 1 79 80
M  V30 60 1 80 81
M  V30 61 1 82 83
M  V30 62 1 83 84
M  V30 63 1 85 86
M  V30 64 1 86 87
M  V30 65 1 88 89
M  V30 66 1 89 90
M  V30 67 1 91 92
M  V30 68 1 92 93
M  V30 69 1 94 95
M  V30 70 1 95 96
M  V30 71 1 97 98
M  V30 72 1 98 99
M  V30 73 1 2 79
M  V30 74 1 3 52
M  V30 75 1 4 64
M  V30 76 1 5 73
M  V30 77 1 7 88
M  V30 78 1 8 49
M  V30 79 1 9 67
M  V30 80 1 10 55
M  V30 81 1 12 75
M  V30 82 1 13 97
M  V30 83 1 14 66
M  V30 84 1 15 54
M  V30 85 1 17 94
M  V30 86 1 18 82
M  V30 87 1 19 76
M  V30 88 1 20 91
M  V30 89 1 22 46
M  V30 90 1 23 70
M  V30 91 1 24 96
M  V30 92 1 25 85
M  V30 93 1 27 93
M  V30 94 1 28 51
M  V30 95 1 29 87
M  V30 96 1 30 72
M  V30 97 1 32 78
M  V30 98 1 33 84
M  V30 99 1 34 57
M  V30 100 1 35 99
M  V30 101 1 37 48
M  V30 102 1 38 58
M  V30 103 1 39 81
M  V30 104 1 40 61
M  V30 105 1 42 63
M  V30 106 1 43 60
M  V30 107 1 44 69
M  V30 108 1 45 90
M  V30 END BOND
M  V30 END CTAB
M  END

$$$$
