
     RDKit          3D

  0  0  0  0  0  0  0  0  0  0999 V3000
M  V30 BEGIN CTAB
M  V30 COUNTS 99 108 0 0 0
M  V30 BEGIN ATOM
M  V30 1 Pd -2.1629 -1.4650 3.1545 0
M  V30 2 Pb -1.7620 -2.3797 3.2277 0
M  V30 3 Pb -1.6526 -1.1961 3.9700 0
M  V30 4 Pb -2.7033 -1.7831 2.3745 0
M  V30 5 Pb -2.4932 -0.5245 3.0576 0
M  V30 6 Pd -5.7543 -0.4674 -1.4730 0
M  V30 7 Pb -6.2089 0.1005 -2.1528 0
M  V30 8 Pb -5.1538 0.3060 -1.2642 0
M  V30 9 Pb -5.2656 -1.0819 -0.8522 0
M  V30 10 Pb -6.2765 -1.2446 -1.8188 0
M  V30 11 Pd -3.1015 1.0549 -5.0304 0
M  V30 12 Pb -2.1081 0.9535 -5.0227 0
M  V30 13 Pb -3.0639 1.5802 -4.1779 0
M  V30 14 Pb -3.1741 0.4026 -5.7837 0
M  V30 15 Pb -4.0885 1.1981 -5.0422 0
M  V30 16 Pd 0.1252 -4.6970 -0.4267 0
M  V30 17 Pb 0.1801 -4.6250 -1.4257 0
M  V30 18 Pb 1.1068 -4.5069 -0.3525 0
M  V30 19 Pb -0.8414 -4.9316 -0.5060 0
M  V30 20 Pb 0.0351 -4.7542 0.5687 0
M  V30 21 Pd 3.1742 4.1390 -2.2207 0
M  V30 22 Pb 3.4423 4.8507 -1.5716 0
M  V30 23 Pb 4.0514 3.6739 -2.1089 0
M  V30 24 Pb 2.8679 3.4173 -2.8388 0
M  V30 25 Pb 2.2708 4.5636 -2.2763 0
M  V30 26 Pd -3.5728 -3.9386 -4.2215 0
M  V30 27 Pb -3.5740 -4.4189 -3.3470 0
M  V30 28 Pb -2.5781 -4.0515 -4.2727 0
M  V30 29 Pb -3.5706 -3.4323 -5.0883 0
M  V30 30 Pb -4.5617 -3.8277 -4.1152 0
M  V30 31 Pd 4.3546 0.9514 6.2930 0
M  V30 32 Pb 4.6951 0.0132 6.2366 0
M  V30 33 Pb 3.9829 1.8784 6.2805 0
M  V30 34 Pb 5.2429 1.2691 5.9639 0
M  V30 35 Pb 3.4466 0.6238 6.5429 0
M  V30 36 Pd 0.4329 5.4845 1.7485 0
M  V30 37 Pb 0.7840 5.4015 2.6808 0
M  V30 38 Pb 0.1245 5.5566 0.8002 0
M  V30 39 Pb -0.3995 4.9831 1.9938 0
M  V30 40 Pb 1.2904 5.9220 1.4773 0
M  V30 41 Pd 6.5116 -0.9403 2.2257 0
M  V30 42 Pb 6.0868 -1.6561 1.6687 0
M  V30 43 Pb 6.8999 -0.2137 2.7937 0
M  V30 44 Pb 6.3394 -1.4649 3.0593 0
M  V30 45 Pb 6.6590 -0.3840 1.4082 0
M  V30 46 Ag -1.2756 -1.0282 4.5950 0
M  V30 47 Fe 0.7155 -0.3197 5.6735 0
M  V30 48 Ag 2.7458 0.3982 6.6695 0
M  V30 49 Ag 1.8504 -4.3967 -0.3163 0
M  V30 50 Fe 3.7871 -3.2736 0.4831 0
M  V30 51 Ag 5.7570 -2.1859 1.2500 0
M  V30 52 Ag -1.3606 0.9162 -5.0095 0
M  V30 53 Fe 0.6588 1.8476 -4.1816 0
M  V30 54 Ag 2.5978 2.8772 -3.2807 0
M  V30 55 Ag -2.6801 0.2009 2.9940 0
M  V30 56 Fe -1.9040 2.4101 2.5828 0
M  V30 57 Ag -1.0069 4.5702 2.1569 0
M  V30 58 Ag 3.6508 2.5476 6.2293 0
M  V30 59 Fe 2.3693 3.9925 4.8485 0
M  V30 60 Ag 1.0927 5.3313 3.3604 0
M  V30 61 Ag 4.6828 3.2884 -1.9909 0
M  V30 62 Fe 5.7751 1.6767 -0.6320 0
M  V30 63 Ag 6.7447 0.0567 0.8077 0
M  V30 64 Ba 4.9559 -0.6819 6.1332 0
M  V30 65 Ga 5.5838 -1.2977 4.9498 0
M  V30 66 Ba 6.1994 -1.8083 3.7110 0
M  V30 67 Ba 0.2030 -4.5661 -2.1761 0
M  V30 68 Ga -0.8084 -4.3539 -3.2342 0
M  V30 69 Ba -1.8310 -4.1413 -4.2813 0
M  V30 70 Ba -1.5600 -5.1279 -0.5728 0
M  V30 71 Ga -2.5785 -4.9499 -1.6204 0
M  V30 72 Ba -3.5807 -4.7597 -2.6814 0
M  V30 73 Ba -6.6077 -1.8175 -2.1685 0
M  V30 74 Ga -6.0071 -2.8150 -3.0733 0
M  V30 75 Ba -5.2921 -3.7549 -3.9567 0
M  V30 76 Ba -4.6881 0.8946 -1.2250 0
M  V30 77 Ga -3.8532 1.4573 -2.3080 0
M  V30 78 Ba -3.0829 1.8916 -3.4931 0
M  V30 79 Ba -6.4833 0.4951 -2.7220 0
M  V30 80 Ga -5.7360 0.9513 -3.9002 0
M  V30 81 Ba -4.8238 1.3198 -4.9898 0
M  V30 82 Ba -1.4242 -3.0494 3.2731 0
M  V30 83 Ga -0.7475 -3.9303 2.2997 0
M  V30 84 Ba -0.0755 -4.7970 1.3105 0
M  V30 85 Ba 5.9014 1.4602 5.6621 0
M  V30 86 Ga 6.5745 0.9301 4.4617 0
M  V30 87 Ba 7.1550 0.3271 3.2475 0
M  V30 88 Ba 1.5846 4.8655 -2.2636 0
M  V30 89 Ga 0.7259 5.2534 -1.1293 0
M  V30 90 Ba -0.0508 5.6076 0.0730 0
M  V30 91 Ba -3.1021 -2.1018 1.8239 0
M  V30 92 Ga -4.0033 -1.7690 0.7033 0
M  V30 93 Ba -4.9143 -1.6072 -0.4467 0
M  V30 94 Ba 3.5851 5.3850 -1.0652 0
M  V30 95 Ga 2.8024 5.8335 0.1017 0
M  V30 96 Ba 1.9445 6.2048 1.2427 0
M  V30 97 Ba -3.2471 -0.1530 -6.2815 0
M  V30 98 Ga -3.4022 -1.6040 -6.0490 0
M  V30 99 Ba -3.5533 -3.0392 -5.7312 0
M  V30 END ATOM
M  V30 BEGIN BOND
M  V30 1 1 1 2
M  V30 2 1 1 3
M  V30 3 1 1 4
M  V30 4 1 1 5
M  V30 5 1 6 7
M  V30 6 1 6 8
M  V30 7 1 6 9
M  V30 8 1 6 10
M  V30 9 1 11 12
M  V30 10 1 11 13
M  V30 11 1 11 14
M  V30 12 1 11 15
M  V30 13 1 16 17
M  V30 14 1 16 18
M  V30 15 1 16 19
M  V30 16 1 16 20
M  V30 17 1 21 22
M  V30 18 1 21 23
M  V30 19 1 21 24
M  V30 20 1 21 25
M  V30 21 1 26 27
M  V30 22 1 26 28
M  V30 23 1 26 29
M  V30 24 1 26 30
M  V30 25 1 31 32
M  V30 26 1 31 33
M  V30 27 1 31 34
M  V30 28 1 31 35
M  V30 29 1 36 37
M  V30 30 1 36 38
M  V30 31 1 36 39
M  V30 32 1 36 40
M  V30 33 1 41 42
M  V30 34 1 41 43
M  V30 35 1 41 44
M  V30 36 1 41 45
M  V30 37 1 46 47
M  V30 38 1 47 48
M  V30 39 1 49 50
M  V30 40 1 50 51
M  V30 41 1 52 53
M  V30 42 1 53 54
M  V30 43 1 55 56
M  V30 44 1 56 57
M  V30 45 1 58 59
M  V30 46 1 59 60
M  V30 47 1 61 62
M  V30 48 1 62 63
M  V30 49 1 64 65
M  V30 50 1 65 66
M  V30 51 1 67 68
M  V30 52 1 68 69
M  V30 53 1 70 71
M  V30 54 1 71 72
M  V30 55 1 73 74
M  V30 56 1 74 75
M  V30 57 1 76 77
M  V30 58 1 77 78
M  V30 59 1 79 80
M  V30 60 1 80 81
M  V30 61 1 82 83
M  V30 62 1 83 84
M  V30 63 1 85 86
M  V30 64 1 86 87
M  V30 65 1 88 89
M  V30 66 1 89 90
M  V30 67 1 91 92
M  V30 68 1 92 93
M  V30 69 1 94 95
M  V30 70 1 95 96
M  V30 71 1 97 98
M  V30 72 1 98 99
M  V30 73 1 2 82
M  V30 74 1 3 46
M  V30 75 1 4 91
M  V30 76 1 5 55
M  V30 77 1 7 79
M  V30 78 1 8 76
M  V30 79 1 9 93
M  V30 80 1 10 73
M  V30 81 1 12 52
M  V30 82 1 13 78
M  V30 83 1 14 97
M  V30 84 1 15 81
M  V30 85 1 17 67
M  V30 86 1 18 49
M  V30 87 1 19 70
M  V30 88 1 20 84
M  V30 89 1 22 94
M  V30 90 1 23 61
M  V30 91 1 24 54
M  V30 92 1 25 88
M  V30 93 1 27 72
M  V30 94 1 28 69
M  V30 95 1 29 99
M  V30 96 1 30 75
M  V30 97 1 32 64
M  V30 98 1 33 58
M  V30 99 1 34 85
M  V30 100 1 35 48
M  V30 101 1 37 60
M  V30 102 1 38 90
M  V30 103 1 39 57
M  V30 104 1 40 96
M  V30 105 1 42 51
M  V30 106 1 43 87
M  V30 107 1 44 66
M  V30 108 1 45 63
M  V30 END BOND
M  V30 END CTAB
M  END

$$$$
