
     RDKit          3D

  0  0  0  0  0  0  0  0  0  0999 V3000
M  V30 BEGIN CTAB
M  V30 COUNTS 99 108 0 0 0
M  V30 BEGIN ATOM
M  V30 1 Pd 2.3665 -1.8295 -3.9583 0
M  V30 2 Pb 3.1864 -1.5059 -3.4790 0
M  V30 3 Pb 2.5984 -2.7727 -3.7236 0
M  V30 4 Pb 2.1144 -0.9057 -4.2483 0
M  V30 5 Pb 1.5477 -2.1632 -4.4261 0
M  V30 6 Pd -2.6322 -6.7902 4.0132 0
M  V30 7 Pb -2.1335 -5.9364 4.1408 0
M  V30 8 Pb -3.0758 -7.6223 3.6928 0
M  V30 9 Pb -3.3912 -6.2565 3.6495 0
M  V30 10 Pb -1.7925 -7.3197 4.1209 0
M  V30 11 Pd 0.9986 5.1043 5.1847 0
M  V30 12 Pb 1.7287 4.4221 5.2318 0
M  V30 13 Pb 0.3333 4.4632 5.5546 0
M  V30 14 Pb 0.2301 5.7326 5.0540 0
M  V30 15 Pb 1.6627 5.6979 4.7289 0
M  V30 16 Pd -2.2162 6.1266 0.9689 0
M  V30 17 Pb -2.2749 6.2753 1.9586 0
M  V30 18 Pb -1.6309 6.9279 0.9378 0
M  V30 19 Pb -2.8569 5.3511 0.9792 0
M  V30 20 Pb -2.1236 6.0304 -0.0416 0
M  V30 21 Pd -2.8773 0.4317 1.6065 0
M  V30 22 Pb -2.3644 -0.3561 1.9469 0
M  V30 23 Pb -2.9218 0.7257 2.5571 0
M  V30 24 Pb -3.3762 1.2581 1.3324 0
M  V30 25 Pb -2.7852 0.1631 0.6434 0
M  V30 26 Pd 1.3022 6.0120 -3.8338 0
M  V30 27 Pb 1.4424 6.8913 -3.3946 0
M  V30 28 Pb 2.2791 5.9684 -4.0267 0
M  V30 29 Pb 1.1860 5.1151 -4.2576 0
M  V30 30 Pb 0.3407 5.9998 -3.5037 0
M  V30 31 Pd 6.0558 3.2875 0.4881 0
M  V30 32 Pb 6.1602 2.3974 0.0424 0
M  V30 33 Pb 6.1847 3.7281 -0.3981 0
M  V30 34 Pb 5.8405 4.1674 0.9152 0
M  V30 35 Pb 5.8467 2.8732 1.3733 0
M  V30 36 Pd -2.6627 -3.7531 -2.5745 0
M  V30 37 Pb -2.6252 -2.7825 -2.3219 0
M  V30 38 Pb -2.6983 -4.7104 -2.8819 0
M  V30 39 Pb -3.2277 -3.9360 -1.7664 0
M  V30 40 Pb -2.1204 -3.5546 -3.3926 0
M  V30 41 Pd -0.2850 -8.6777 -1.7166 0
M  V30 42 Pb -1.0603 -9.1570 -1.3100 0
M  V30 43 Pb 0.4935 -8.1588 -2.0678 0
M  V30 44 Pb -0.8837 -8.3239 -2.4365 0
M  V30 45 Pb 0.2332 -8.9257 -0.8970 0
M  V30 46 Ag -1.7688 -5.2846 4.1064 0
M  V30 47 Fe -1.8422 -3.0793 3.2301 0
M  V30 48 Ag -1.9906 -0.8943 2.3130 0
M  V30 49 Ag 3.8075 -1.2961 -3.1077 0
M  V30 50 Fe 5.0099 0.2139 -1.7191 0
M  V30 51 Ag 6.1843 1.7457 -0.3305 0
M  V30 52 Ag -1.1741 7.4935 0.8029 0
M  V30 53 Fe 0.3316 7.9464 -0.9480 0
M  V30 54 Ag 1.4690 7.4847 -2.9554 0
M  V30 55 Ag 2.2123 6.0366 4.3456 0
M  V30 56 Fe 3.9549 5.5646 2.8002 0
M  V30 57 Ag 5.5957 4.7843 1.2680 0
M  V30 58 Ag -1.1715 -7.7172 3.9917 0
M  V30 59 Fe -0.1038 -8.5133 2.0263 0
M  V30 60 Ag 0.5044 -9.0427 -0.2070 0
M  V30 61 Ag -3.3054 -8.2060 3.2915 0
M  V30 62 Fe -2.6664 -9.0749 1.1833 0
M  V30 63 Ag -1.6121 -9.4543 -0.9035 0
M  V30 64 Ag 2.2876 3.9248 5.1746 0
M  V30 65 Fe 4.0058 3.1718 3.7183 0
M  V30 66 Ag 5.6180 2.6549 2.0530 0
M  V30 67 Ag -3.8622 -5.8627 3.2232 0
M  V30 68 Fe -3.8789 -4.9034 1.0501 0
M  V30 69 Ag -3.6494 -4.0395 -1.1512 0
M  V30 70 Ag 1.8750 -0.2494 -4.5229 0
M  V30 71 Fe 1.5218 2.0989 -4.5020 0
M  V30 72 Ag 1.1237 4.4390 -4.5736 0
M  V30 73 Ag 2.7458 -3.4939 -3.5839 0
M  V30 74 Fe 1.9413 -5.6332 -2.9408 0
M  V30 75 Ag 1.0790 -7.7477 -2.2912 0
M  V30 76 Ag 3.0206 5.8872 -4.0487 0
M  V30 77 Fe 4.7622 5.0206 -2.6940 0
M  V30 78 Ag 6.1950 4.0588 -1.0685 0
M  V30 79 Ag -0.2079 3.9806 5.7236 0
M  V30 80 Fe -1.6367 2.4180 4.6630 0
M  V30 81 Ag -2.8700 0.9591 3.2633 0
M  V30 82 Ba -2.7065 0.0362 -0.0956 0
M  V30 83 Ga -2.6595 -1.0593 -1.0888 0
M  V30 84 Ba -2.5918 -2.0408 -2.1938 0
M  V30 85 Ba -3.3781 4.8056 0.9318 0
M  V30 86 Ga -3.5200 3.3369 1.0597 0
M  V30 87 Ba -3.7666 1.8801 1.1635 0
M  V30 88 Ba -2.1022 5.9800 -0.8084 0
M  V30 89 Ga -1.1774 5.9806 -1.9849 0
M  V30 90 Ba -0.3832 5.9654 -3.2532 0
M  V30 91 Ba -0.4056 6.1216 4.9550 0
M  V30 92 Ga -1.3386 6.2981 3.8212 0
M  V30 93 Ba -2.2701 6.4717 2.6857 0
M  V30 94 Ba 0.9344 -2.4087 -4.7819 0
M  V30 95 Ga -0.3948 -2.9113 -4.3823 0
M  V30 96 Ba -1.7334 -3.4183 -4.0220 0
M  V30 97 Ba -2.7096 -5.3998 -3.1926 0
M  V30 98 Ga -2.0353 -6.7092 -3.0409 0
M  V30 99 Ba -1.3831 -8.0326 -2.9168 0
M  V30 END ATOM
M  V30 BEGIN BOND
M  V30 1 1 1 2
M  V30 2 1 1 3
M  V30 3 1 1 4
M  V30 4 1 1 5
M  V30 5 1 6 7
M  V30 6 1 6 8
M  V30 7 1 6 9
M  V30 8 1 6 10
M  V30 9 1 11 12
M  V30 10 1 11 13
M  V30 11 1 11 14
M  V30 12 1 11 15
M  V30 13 1 16 17
M  V30 14 1 16 18
M  V30 15 1 16 19
M  V30 16 1 16 20
M  V30 17 1 21 22
M  V30 18 1 21 23
M  V30 19 1 21 24
M  V30 20 1 21 25
M  V30 21 1 26 27
M  V30 22 1 26 28
M  V30 23 1 26 29
M  V30 24 1 26 30
M  V30 25 1 31 32
M  V30 26 1 31 33
M  V30 27 1 31 34
M  V30 28 1 31 35
M  V30 29 1 36 37
M  V30 30 1 36 38
M  V30 31 1 36 39
M  V30 32 1 36 40
M  V30 33 1 41 42
M  V30 34 1 41 43
M  V30 35 1 41 44
M  V30 36 1 41 45
M  V30 37 1 46 47
M  V30 38 1 47 48
M  V30 39 1 49 50
M  V30 40 1 50 51
M  V30 41 1 52 53
M  V30 42 1 53 54
M  V30 43 1 55 56
M  V30 44 1 56 57
M  V30 45 1 58 59
M  V30 46 1 59 60
M  V30 47 1 61 62
M  V30 48 1 62 63
M  V30 49 1 64 65
M  V30 50 1 65 66
M  V30 51 1 67 68
M  V30 52 1 68 69
M  V30 53 1 70 71
M  V30 54 1 71 72
M  V30 55 1 73 74
M  V30 56 1 74 75
M  V30 57 1 76 77
M  V30 58 1 77 78
M  V30 59 1 79 80
M  V30 60 1 80 81
M  V30 61 1 82 83
M  V30 62 1 83 84
M  V30 63 1 85 86
M  V30 64 1 86 87
M  V30 65 1 88 89
M  V30 66 1 89 90
M  V30 67 1 91 92
M  V30 68 1 92 93
M  V30 69 1 94 95
M  V30 70 1 95 96
M  V30 71 1 97 98
M  V30 72 1 98 99
M  V30 73 1 2 49
M  V30 74 1 3 73
M  V30 75 1 4 70
M  V30 76 1 5 94
M  V30 77 1 7 46
M  V30 78 1 8 61
M  V30 79 1 9 67
M  V30 80 1 10 58
M  V30 81 1 12 64
M  V30 82 1 13 79
M  V30 83 1 14 91
M  V30 84 1 15 55
M  V30 85 1 17 93
M  V30 86 1 18 52
M  V30 87 1 19 85
M  V30 88 1 20 88
M  V30 89 1 22 48
M  V30 90 1 23 81
M  V30 91 1 24 87
M  V30 92 1 25 82
M  V30 93 1 27 54
M  V30 94 1 28 76
M  V30 95 1 29 72
M  V30 96 1 30 90
M  V30 97 1 32 51
M  V30 98 1 33 78
M  V30 99 1 34 57
M  V30 100 1 35 66
M  V30 101 1 37 84
M  V30 102 1 38 97
M  V30 103 1 39 69
M  V30 104 1 40 96
M  V30 105 1 42 63
M  V30 106 1 43 75
M  V30 107 1 44 99
M  V30 108 1 45 60
M  V30 END BOND
M  V30 END CTAB
M  END

$$$$
