
     RDKit          3D

  0  0  0  0  0  0  0  0  0  0999 V3000
M  V30 BEGIN CTAB
M  V30 COUNTS 99 108 0 0 0
M  V30 BEGIN ATOM
M  V30 1 Pd 2.4965 0.7100 -2.8740 0
M  V30 2 Pb 2.7512 1.5899 -3.2789 0
M  V30 3 Pb 1.6539 1.1548 -2.5668 0
M  V30 4 Pb 3.3475 0.2714 -3.1712 0
M  V30 5 Pb 2.2219 -0.1685 -2.4790 0
M  V30 6 Pd -6.3579 -1.0572 -3.3714 0
M  V30 7 Pb -6.5740 -1.2234 -2.4082 0
M  V30 8 Pb -6.3282 -0.0708 -3.1877 0
M  V30 9 Pb -6.3340 -2.0421 -3.5690 0
M  V30 10 Pb -6.1575 -0.8539 -4.3289 0
M  V30 11 Pd -0.2877 3.8539 5.1444 0
M  V30 12 Pb 0.5917 4.3078 5.0163 0
M  V30 13 Pb -1.1593 3.3729 5.2501 0
M  V30 14 Pb 0.0670 3.3636 5.9397 0
M  V30 15 Pb -0.5689 4.2817 4.2821 0
M  V30 16 Pd 3.2855 -2.3640 5.7865 0
M  V30 17 Pb 3.0022 -1.6884 6.4659 0
M  V30 18 Pb 3.5436 -2.9570 5.0206 0
M  V30 19 Pb 2.4115 -2.8316 5.9171 0
M  V30 20 Pb 4.1416 -1.8772 5.6248 0
M  V30 21 Pd -4.1970 -2.6564 3.9082 0
M  V30 22 Pb -4.9332 -2.3657 3.2971 0
M  V30 23 Pb -4.1917 -1.7572 4.3484 0
M  V30 24 Pb -3.4470 -2.9722 4.4901 0
M  V30 25 Pb -4.1807 -3.5260 3.4193 0
M  V30 26 Pd 6.8581 -0.8538 -0.2534 0
M  V30 27 Pb 6.4426 -1.7118 0.0566 0
M  V30 28 Pb 7.2022 0.0477 -0.5076 0
M  V30 29 Pb 6.5811 -0.9980 -1.2047 0
M  V30 30 Pb 7.0716 -0.6762 0.7051 0
M  V30 31 Pd 3.5462 5.4338 -0.7259 0
M  V30 32 Pb 3.3845 5.1775 -1.6794 0
M  V30 33 Pb 4.5077 5.2072 -0.8649 0
M  V30 34 Pb 2.5716 5.5670 -0.5298 0
M  V30 35 Pb 3.7085 5.6215 0.2403 0
M  V30 36 Pd -2.5920 -4.8385 -2.9254 0
M  V30 37 Pb -2.9283 -5.2593 -2.0853 0
M  V30 38 Pb -2.2242 -4.3721 -3.7270 0
M  V30 39 Pb -3.5125 -4.8851 -3.3198 0
M  V30 40 Pb -1.7048 -4.6722 -2.4976 0
M  V30 41 Pd -2.6980 1.8111 -4.6986 0
M  V30 42 Pb -3.4546 2.2610 -4.2269 0
M  V30 43 Pb -2.0743 2.0511 -3.9529 0
M  V30 44 Pb -2.0301 1.2023 -5.1146 0
M  V30 45 Pb -3.3452 1.4941 -5.3882 0
M  V30 46 Ag -6.7456 -1.3041 -1.6815 0
M  V30 47 Fe -6.1163 -1.7438 0.5668 0
M  V30 48 Ag -5.4758 -2.1863 2.8113 0
M  V30 49 Ag -4.1619 -4.1398 2.9930 0
M  V30 50 Fe -3.6906 -4.9474 0.8131 0
M  V30 51 Ag -3.1631 -5.5242 -1.4265 0
M  V30 52 Ag 1.7378 -3.1430 6.0245 0
M  V30 53 Fe -0.5721 -3.2034 5.4748 0
M  V30 54 Ag -2.8767 -3.2356 4.9008 0
M  V30 55 Ag 3.7747 -3.3077 4.3958 0
M  V30 56 Fe 4.9267 -2.9465 2.3463 0
M  V30 57 Ag 6.1095 -2.3011 0.3860 0
M  V30 58 Ag -0.6710 4.5882 3.6015 0
M  V30 59 Fe 0.4759 5.1594 1.5964 0
M  V30 60 Ag 1.8628 5.6232 -0.2806 0
M  V30 61 Ag 1.2358 4.6439 4.8401 0
M  V30 62 Fe 2.6093 5.2480 3.0036 0
M  V30 63 Ag 3.7565 5.7123 0.9806 0
M  V30 64 Ag 4.7758 -1.5383 5.4199 0
M  V30 65 Fe 6.0801 -0.9824 3.5185 0
M  V30 66 Ag 7.1495 -0.5725 1.4414 0
M  V30 67 Ag 0.3700 2.9388 6.4774 0
M  V30 68 Fe 1.5644 0.9204 6.8440 0
M  V30 69 Ag 2.7449 -1.1381 6.9042 0
M  V30 70 Ag 2.0337 -0.8434 -2.2068 0
M  V30 71 Fe 0.5310 -2.6828 -2.1572 0
M  V30 72 Ag -1.0535 -4.4522 -2.1996 0
M  V30 73 Ag -1.8949 -3.9545 -4.2524 0
M  V30 74 Fe -1.6231 -1.7180 -4.9875 0
M  V30 75 Ag -1.6597 0.6171 -5.3876 0
M  V30 76 Ag 7.3798 0.7545 -0.6743 0
M  V30 77 Fe 6.4432 2.9251 -0.8622 0
M  V30 78 Ag 5.2001 4.9423 -0.9588 0
M  V30 79 Ag -1.7940 2.9827 5.3464 0
M  V30 80 Fe -3.0083 0.9681 5.0088 0
M  V30 81 Ag -4.1804 -1.0669 4.6446 0
M  V30 82 Ba 2.8830 2.2700 -3.5708 0
M  V30 83 Ga 3.1013 3.6128 -2.9956 0
M  V30 84 Ba 3.3182 4.9420 -2.3892 0
M  V30 85 Ba -5.9929 -0.6431 -5.0284 0
M  V30 86 Ga -4.9426 0.2654 -5.5163 0
M  V30 87 Ba -3.8455 1.1876 -5.8511 0
M  V30 88 Ba -6.2656 0.6720 -3.0748 0
M  V30 89 Ga -5.2046 1.6334 -3.4407 0
M  V30 90 Ba -4.0722 2.4824 -3.8652 0
M  V30 91 Ba -6.2978 -2.7761 -3.7421 0
M  V30 92 Ga -5.2626 -3.8318 -3.6632 0
M  V30 93 Ba -4.2195 -4.8792 -3.5786 0
M  V30 94 Ba 3.9740 -0.0926 -3.3748 0
M  V30 95 Ga 5.1718 -0.5787 -2.6583 0
M  V30 96 Ba 6.3608 -1.0549 -1.9209 0
M  V30 97 Ba 1.0481 1.5371 -2.3405 0
M  V30 98 Ga -0.2923 1.8553 -2.8727 0
M  V30 99 Ba -1.6430 2.2049 -3.3571 0
M  V30 END ATOM
M  V30 BEGIN BOND
M  V30 1 1 1 2
M  V30 2 1 1 3
M  V30 3 1 1 4
M  V30 4 1 1 5
M  V30 5 1 6 7
M  V30 6 1 6 8
M  V30 7 1 6 9
M  V30 8 1 6 10
M  V30 9 1 11 12
M  V30 10 1 11 13
M  V30 11 1 11 14
M  V30 12 1 11 15
M  V30 13 1 16 17
M  V30 14 1 16 18
M  V30 15 1 16 19
M  V30 16 1 16 20
M  V30 17 1 21 22
M  V30 18 1 21 23
M  V30 19 1 21 24
M  V30 20 1 21 25
M  V30 21 1 26 27
M  V30 22 1 26 28
M  V30 23 1 26 29
M  V30 24 1 26 30
M  V30 25 1 31 32
M  V30 26 1 31 33
M  V30 27 1 31 34
M  V30 28 1 31 35
M  V30 29 1 36 37
M  V30 30 1 36 38
M  V30 31 1 36 39
M  V30 32 1 36 40
M  V30 33 1 41 42
M  V30 34 1 41 43
M  V30 35 1 41 44
M  V30 36 1 41 45
M  V30 37 1 46 47
M  V30 38 1 47 48
M  V30 39 1 49 50
M  V30 40 1 50 51
M  V30 41 1 52 53
M  V30 42 1 53 54
M  V30 43 1 55 56
M  V30 44 1 56 57
M  V30 45 1 58 59
M  V30 46 1 59 60
M  V30 47 1 61 62
M  V30 48 1 62 63
M  V30 49 1 64 65
M  V30 50 1 65 66
M  V30 51 1 67 68
M  V30 52 1 68 69
M  V30 53 1 70 71
M  V30 54 1 71 72
M  V30 55 1 73 74
M  V30 56 1 74 75
M  V30 57 1 76 77
M  V30 58 1 77 78
M  V30 59 1 79 80
M  V30 60 1 80 81
M  V30 61 1 82 83
M  V30 62 1 83 84
M  V30 63 1 85 86
M  V30 64 1 86 87
M  V30 65 1 88 89
M  V30 66 1 89 90
M  V30 67 1 91 92
M  V30 68 1 92 93
M  V30 69 1 94 95
M  V30 70 1 95 96
M  V30 71 1 97 98
M  V30 72 1 98 99
M  V30 73 1 2 82
M  V30 74 1 3 97
M  V30 75 1 4 94
M  V30 76 1 5 70
M  V30 77 1 7 46
M  V30 78 1 8 88
M  V30 79 1 9 91
M  V30 80 1 10 85
M  V30 81 1 12 61
M  V30 82 1 13 79
M  V30 83 1 14 67
M  V30 84 1 15 58
M  V30 85 1 17 69
M  V30 86 1 18 55
M  V30 87 1 19 52
M  V30 88 1 20 64
M  V30 89 1 22 48
M  V30 90 1 23 81
M  V30 91 1 24 54
M  V30 92 1 25 49
M  V30 93 1 27 57
M  V30 94 1 28 76
M  V30 95 1 29 96
M  V30 96 1 30 66
M  V30 97 1 32 84
M  V30 98 1 33 78
M  V30 99 1 34 60
M  V30 100 1 35 63
M  V30 101 1 37 51
M  V30 102 1 38 73
M  V30 103 1 39 93
M  V30 104 1 40 72
M  V30 105 1 42 90
M  V30 106 1 43 99
M  V30 107 1 44 75
M  V30 108 1 45 87
M  V30 END BOND
M  V30 END CTAB
M  END

$$$$
