
     RDKit          3D

  0  0  0  0  0  0  0  0  0  0999 V3000
M  V30 BEGIN CTAB
M  V30 COUNTS 99 108 0 0 0
M  V30 BEGIN ATOM
M  V30 1 Pd 2.0732 4.2908 1.1998 0
M  V30 2 Pb 1.9010 3.5892 0.5061 0
M  V30 3 Pb 3.0390 4.0333 1.2512 0
M  V30 4 Pb 2.2539 5.0112 1.8711 0
M  V30 5 Pb 1.1059 4.5491 1.1670 0
M  V30 6 Pd 5.0503 4.1823 5.3631 0
M  V30 7 Pb 4.7020 4.3405 6.2876 0
M  V30 8 Pb 4.5747 4.9923 5.0247 0
M  V30 9 Pb 5.3377 3.9821 4.4263 0
M  V30 10 Pb 5.4409 3.3221 5.6871 0
M  V30 11 Pd -0.4706 -5.4720 -0.8174 0
M  V30 12 Pb -0.0445 -5.8975 -1.6171 0
M  V30 13 Pb -0.8857 -4.9772 -0.0525 0
M  V30 14 Pb -1.3864 -5.5706 -1.2070 0
M  V30 15 Pb 0.4394 -5.3848 -0.4129 0
M  V30 16 Pd -6.0971 -2.4618 -5.0446 0
M  V30 17 Pb -6.5341 -1.9316 -4.3172 0
M  V30 18 Pb -5.5219 -2.9209 -5.7190 0
M  V30 19 Pb -6.2598 -1.6924 -5.6610 0
M  V30 20 Pb -5.8838 -3.2101 -4.4183 0
M  V30 21 Pd 2.5439 -1.3510 -0.2001 0
M  V30 22 Pb 2.9615 -1.4709 -1.1035 0
M  V30 23 Pb 2.1419 -1.2877 0.7151 0
M  V30 24 Pb 2.7901 -2.2894 0.0296 0
M  V30 25 Pb 2.2449 -0.4300 -0.4599 0
M  V30 26 Pd 2.0558 1.0626 7.2248 0
M  V30 27 Pb 2.3068 1.8326 7.8094 0
M  V30 28 Pb 1.0970 1.3380 7.2105 0
M  V30 29 Pb 3.0245 0.8210 7.1725 0
M  V30 30 Pb 1.8160 0.3704 6.5445 0
M  V30 31 Pd 1.1708 -3.2486 -5.2773 0
M  V30 32 Pb 1.9819 -2.9357 -4.7784 0
M  V30 33 Pb 1.0061 -2.3110 -5.5827 0
M  V30 34 Pb 1.2823 -4.1849 -4.9390 0
M  V30 35 Pb 0.3524 -3.5347 -5.7782 0
M  V30 36 Pd -2.4017 1.4996 1.6782 0
M  V30 37 Pb -2.1861 1.3324 0.7181 0
M  V30 38 Pb -2.4645 0.5123 1.8364 0
M  V30 39 Pb -2.2714 2.4798 1.5277 0
M  V30 40 Pb -2.5353 1.6644 2.6539 0
M  V30 41 Pd -4.0029 1.5471 -4.0399 0
M  V30 42 Pb -4.6100 1.5722 -4.8315 0
M  V30 43 Pb -4.7973 1.3180 -3.4752 0
M  V30 44 Pb -3.2010 1.6434 -4.6262 0
M  V30 45 Pb -3.3604 1.4222 -3.2843 0
M  V30 46 Ag -2.0905 -5.6266 -1.4599 0
M  V30 47 Fe -3.9002 -4.7298 -2.7087 0
M  V30 48 Ag -5.6655 -3.7749 -3.9776 0
M  V30 49 Ag 0.8234 -1.6115 -5.7803 0
M  V30 50 Fe -0.7959 0.1012 -5.5020 0
M  V30 51 Ag -2.5699 1.6037 -5.0254 0
M  V30 52 Ag 1.8679 -1.3374 1.4137 0
M  V30 53 Fe 1.7468 -0.7008 3.7000 0
M  V30 54 Ag 1.5983 -0.0867 5.9909 0
M  V30 55 Ag 0.3813 1.5194 7.0944 0
M  V30 56 Fe -1.2157 1.6986 5.3498 0
M  V30 57 Ag -2.5549 1.7759 3.3934 0
M  V30 58 Ag -4.9958 -3.2432 -6.1427 0
M  V30 59 Fe -2.6432 -3.5480 -6.2494 0
M  V30 60 Ag -0.2766 -3.7183 -6.1456 0
M  V30 61 Ag -1.2196 -4.5710 0.4840 0
M  V30 62 Fe -1.8619 -2.4155 1.2529 0
M  V30 63 Ag -2.4722 -0.2295 1.9589 0
M  V30 64 Ba -1.9594 1.2048 0.0167 0
M  V30 65 Ga -2.4620 1.2700 -1.3673 0
M  V30 66 Ba -2.8051 1.2805 -2.8005 0
M  V30 67 Ba 5.6457 2.6525 5.9515 0
M  V30 68 Ga 4.7748 1.6218 6.5427 0
M  V30 69 Ba 3.7625 0.7102 7.1036 0
M  V30 70 Ba 3.7658 3.8597 1.3249 0
M  V30 71 Ga 4.6651 3.8325 2.4947 0
M  V30 72 Ba 5.5015 3.8283 3.7106 0
M  V30 73 Ba -6.3480 -1.0697 -6.0675 0
M  V30 74 Ga -5.7548 0.2551 -5.8244 0
M  V30 75 Ba -5.0693 1.4916 -5.4159 0
M  V30 76 Ba 2.4189 5.5495 2.3683 0
M  V30 77 Ga 3.2882 5.5927 3.5588 0
M  V30 78 Ba 4.1753 5.5559 4.7363 0
M  V30 79 Ba 0.3779 4.7357 1.1457 0
M  V30 80 Ga -0.8876 3.9865 1.2774 0
M  V30 81 Ba -2.1352 3.2087 1.4133 0
M  V30 82 Ba 4.4064 4.3913 6.9754 0
M  V30 83 Ga 3.4743 3.4682 7.6483 0
M  V30 84 Ba 2.5486 2.4447 8.1666 0
M  V30 85 Ba 0.3115 -6.1743 -2.2179 0
M  V30 86 Ga 0.8231 -5.5524 -3.4565 0
M  V30 87 Ba 1.3186 -4.8900 -4.6805 0
M  V30 88 Ba 3.2973 -1.5897 -1.7663 0
M  V30 89 Ga 2.9200 -2.1329 -3.0885 0
M  V30 90 Ba 2.5911 -2.6684 -4.4266 0
M  V30 91 Ba 1.1298 -5.3214 -0.1278 0
M  V30 92 Ga 2.0517 -4.1875 0.0525 0
M  V30 93 Ba 2.9166 -3.0053 0.2011 0
M  V30 94 Ba 1.7515 3.0951 -0.0400 0
M  V30 95 Ga 1.9039 1.6527 -0.3215 0
M  V30 96 Ba 1.9999 0.2329 -0.7183 0
M  V30 97 Ba -6.7707 -1.4639 -3.7795 0
M  V30 98 Ga -6.1548 -0.1823 -3.3795 0
M  V30 99 Ba -5.4082 1.0652 -3.1181 0
M  V30 END ATOM
M  V30 BEGIN BOND
M  V30 1 1 1 2
M  V30 2 1 1 3
M  V30 3 1 1 4
M  V30 4 1 1 5
M  V30 5 1 6 7
M  V30 6 1 6 8
M  V30 7 1 6 9
M  V30 8 1 6 10
M  V30 9 1 11 12
M  V30 10 1 11 13
M  V30 11 1 11 14
M  V30 12 1 11 15
M  V30 13 1 16 17
M  V30 14 1 16 18
M  V30 15 1 16 19
M  V30 16 1 16 20
M  V30 17 1 21 22
M  V30 18 1 21 23
M  V30 19 1 21 24
M  V30 20 1 21 25
M  V30 21 1 26 27
M  V30 22 1 26 28
M  V30 23 1 26 29
M  V30 24 1 26 30
M  V30 25 1 31 32
M  V30 26 1 31 33
M  V30 27 1 31 34
M  V30 28 1 31 35
M  V30 29 1 36 37
M  V30 30 1 36 38
M  V30 31 1 36 39
M  V30 32 1 36 40
M  V30 33 1 41 42
M  V30 34 1 41 43
M  V30 35 1 41 44
M  V30 36 1 41 45
M  V30 37 1 46 47
M  V30 38 1 47 48
M  V30 39 1 49 50
M  V30 40 1 50 51
M  V30 41 1 52 53
M  V30 42 1 53 54
M  V30 43 1 55 56
M  V30 44 1 56 57
M  V30 45 1 58 59
M  V30 46 1 59 60
M  V30 47 1 61 62
M  V30 48 1 62 63
M  V30 49 1 64 65
M  V30 50 1 65 66
M  V30 51 1 67 68
M  V30 52 1 68 69
M  V30 53 1 70 71
M  V30 54 1 71 72
M  V30 55 1 73 74
M  V30 56 1 74 75
M  V30 57 1 76 77
M  V30 58 1 77 78
M  V30 59 1 79 80
M  V30 60 1 80 81
M  V30 61 1 82 83
M  V30 62 1 83 84
M  V30 63 1 85 86
M  V30 64 1 86 87
M  V30 65 1 88 89
M  V30 66 1 89 90
M  V30 67 1 91 92
M  V30 68 1 92 93
M  V30 69 1 94 95
M  V30 70 1 95 96
M  V30 71 1 97 98
M  V30 72 1 98 99
M  V30 73 1 2 94
M  V30 74 1 3 70
M  V30 75 1 4 76
M  V30 76 1 5 79
M  V30 77 1 7 82
M  V30 78 1 8 78
M  V30 79 1 9 72
M  V30 80 1 10 67
M  V30 81 1 12 85
M  V30 82 1 13 61
M  V30 83 1 14 46
M  V30 84 1 15 91
M  V30 85 1 17 97
M  V30 86 1 18 58
M  V30 87 1 19 73
M  V30 88 1 20 48
M  V30 89 1 22 88
M  V30 90 1 23 52
M  V30 91 1 24 93
M  V30 92 1 25 96
M  V30 93 1 27 84
M  V30 94 1 28 55
M  V30 95 1 29 69
M  V30 96 1 30 54
M  V30 97 1 32 90
M  V30 98 1 33 49
M  V30 99 1 34 87
M  V30 100 1 35 60
M  V30 101 1 37 64
M  V30 102 1 38 63
M  V30 103 1 39 81
M  V30 104 1 40 57
M  V30 105 1 42 75
M  V30 106 1 43 99
M  V30 107 1 44 51
M  V30 108 1 45 66
M  V30 END BOND
M  V30 END CTAB
M  END

$$$$
