
     RDKit          3D

  0  0  0  0  0  0  0  0  0  0999 V3000
M  V30 BEGIN CTAB
M  V30 COUNTS 99 108 0 0 0
M  V30 BEGIN ATOM
M  V30 1 Pd -6.5398 0.4948 -0.0293 0
M  V30 2 Pb -5.7104 0.2350 0.4615 0
M  V30 3 Pb -6.4436 1.4495 0.2979 0
M  V30 4 Pb -7.3420 0.7714 -0.5508 0
M  V30 5 Pb -6.5525 -0.4200 -0.4305 0
M  V30 6 Pd -4.8581 5.5440 -1.9449 0
M  V30 7 Pb -4.5161 5.7716 -2.8528 0
M  V30 8 Pb -5.7819 5.4485 -2.3050 0
M  V30 9 Pb -5.1875 5.1588 -1.0692 0
M  V30 10 Pb -3.9180 5.6156 -1.6043 0
M  V30 11 Pd 0.7808 -1.6876 5.3686 0
M  V30 12 Pb 1.6621 -1.4571 5.7647 0
M  V30 13 Pb -0.0517 -1.8923 4.8509 0
M  V30 14 Pb 1.0447 -2.6522 5.4225 0
M  V30 15 Pb 0.5954 -0.7080 5.3011 0
M  V30 16 Pd 3.8881 -5.3071 2.4152 0
M  V30 17 Pb 4.2772 -5.4925 1.5201 0
M  V30 18 Pb 4.8084 -5.0083 2.6763 0
M  V30 19 Pb 2.9857 -5.4215 1.9987 0
M  V30 20 Pb 3.4671 -5.1810 3.3177 0
M  V30 21 Pd 1.1241 1.4364 1.2634 0
M  V30 22 Pb 2.0335 1.8515 1.1966 0
M  V30 23 Pb 1.1835 1.1778 0.3005 0
M  V30 24 Pb 1.0311 1.6918 2.2243 0
M  V30 25 Pb 0.2375 0.9843 1.3517 0
M  V30 26 Pd -1.0203 3.0050 -3.7285 0
M  V30 27 Pb -1.5980 3.6585 -4.2204 0
M  V30 28 Pb -1.2812 2.2564 -4.3352 0
M  V30 29 Pb -0.8702 3.7089 -3.0353 0
M  V30 30 Pb -0.4011 2.3639 -3.2720 0
M  V30 31 Pd 6.1100 -0.6227 1.2199 0
M  V30 32 Pb 5.7364 0.3022 1.1198 0
M  V30 33 Pb 6.1851 -0.6501 0.2158 0
M  V30 34 Pb 6.0351 -0.5436 2.2093 0
M  V30 35 Pb 6.4523 -1.5547 1.4019 0
M  V30 36 Pd -2.3969 -1.2492 -1.7012 0
M  V30 37 Pb -1.5877 -0.6639 -1.6175 0
M  V30 38 Pb -2.3962 -1.4581 -0.7184 0
M  V30 39 Pb -3.2467 -1.7724 -1.7822 0
M  V30 40 Pb -2.4002 -1.0461 -2.6832 0
M  V30 41 Pd 2.8416 -1.5870 -2.8405 0
M  V30 42 Pb 2.0883 -2.1918 -2.5786 0
M  V30 43 Pb 3.3852 -2.3956 -3.0287 0
M  V30 44 Pb 3.6920 -1.0638 -2.8932 0
M  V30 45 Pb 2.2945 -0.7984 -2.5661 0
M  V30 46 Ag 2.3767 -5.3778 1.5617 0
M  V30 47 Fe 1.7491 -4.1437 -0.3697 0
M  V30 48 Ag 1.6355 -2.6912 -2.2473 0
M  V30 49 Ag -7.8371 1.1317 -0.9689 0
M  V30 50 Fe -7.6280 3.2471 -1.9860 0
M  V30 51 Ag -6.4645 5.2315 -2.4991 0
M  V30 52 Ag 2.3637 -1.2670 5.9128 0
M  V30 53 Fe 4.3027 -0.8370 4.6288 0
M  V30 54 Ag 5.9342 -0.5142 2.9466 0
M  V30 55 Ag -5.0756 0.0308 0.8007 0
M  V30 56 Fe -2.7457 0.3482 1.1244 0
M  V30 57 Ag -0.4153 0.6362 1.4713 0
M  V30 58 Ag 4.5203 -5.5815 0.8245 0
M  V30 59 Fe 4.3436 -4.5204 -1.2771 0
M  V30 60 Ag 3.7839 -3.0186 -3.0097 0
M  V30 61 Ag -0.6463 -2.0100 4.4059 0
M  V30 62 Fe -1.5435 -1.8273 2.2101 0
M  V30 63 Ag -2.4360 -1.6416 0.0126 0
M  V30 64 Ba 1.3112 -3.3518 5.4934 0
M  V30 65 Ga 2.2057 -4.2340 4.7124 0
M  V30 66 Ba 3.0964 -5.1558 3.9740 0
M  V30 67 Ba -1.0078 -0.1851 -1.5924 0
M  V30 68 Ga 0.4236 -0.2110 -1.9514 0
M  V30 69 Ba 1.8543 -0.2490 -2.3117 0
M  V30 70 Ba -3.1948 5.6606 -1.4010 0
M  V30 71 Ga -1.9890 4.9760 -1.9095 0
M  V30 72 Ba -0.8578 4.2299 -2.4964 0
M  V30 73 Ba -6.3570 2.1678 0.5431 0
M  V30 74 Ga -5.8967 3.4885 0.0229 0
M  V30 75 Ba -5.4503 4.8387 -0.4291 0
M  V30 76 Ba 6.2252 -0.5510 -0.5348 0
M  V30 77 Ga 5.3139 -0.6596 -1.6996 0
M  V30 78 Ba 4.3879 -0.7825 -2.8513 0
M  V30 79 Ba 1.2315 0.9822 -0.4206 0
M  V30 80 Ga 0.6349 1.4449 -1.6881 0
M  V30 81 Ba 0.0752 1.8559 -2.9896 0
M  V30 82 Ba -6.4660 -1.0888 -0.7567 0
M  V30 83 Ga -5.2262 -1.6720 -1.3034 0
M  V30 84 Ba -3.9123 -2.1197 -1.8033 0
M  V30 85 Ba -4.2188 5.8364 -3.5346 0
M  V30 86 Ga -3.1170 5.0428 -4.1069 0
M  V30 87 Ba -2.0087 4.1857 -4.5643 0
M  V30 88 Ba -1.5105 1.6433 -4.6985 0
M  V30 89 Ga -1.9535 0.3617 -4.1156 0
M  V30 90 Ba -2.3733 -0.8675 -3.4140 0
M  V30 91 Ba 2.7241 2.1414 1.1298 0
M  V30 92 Ga 4.0873 1.5708 1.0965 0
M  V30 93 Ba 5.4486 0.9954 1.0638 0
M  V30 94 Ba 0.5271 0.0360 5.2423 0
M  V30 95 Ga 0.7047 0.9685 4.1148 0
M  V30 96 Ba 0.8950 1.8440 2.9447 0
M  V30 97 Ba 5.5150 -4.7432 2.7035 0
M  V30 98 Ga 6.1159 -3.4801 2.1975 0
M  V30 99 Ba 6.7051 -2.2155 1.6819 0
M  V30 END ATOM
M  V30 BEGIN BOND
M  V30 1 1 1 2
M  V30 2 1 1 3
M  V30 3 1 1 4
M  V30 4 1 1 5
M  V30 5 1 6 7
M  V30 6 1 6 8
M  V30 7 1 6 9
M  V30 8 1 6 10
M  V30 9 1 11 12
M  V30 10 1 11 13
M  V30 11 1 11 14
M  V30 12 1 11 15
M  V30 13 1 16 17
M  V30 14 1 16 18
M  V30 15 1 16 19
M  V30 16 1 16 20
M  V30 17 1 21 22
M  V30 18 1 21 23
M  V30 19 1 21 24
M  V30 20 1 21 25
M  V30 21 1 26 27
M  V30 22 1 26 28
M  V30 23 1 26 29
M  V30 24 1 26 30
M  V30 25 1 31 32
M  V30 26 1 31 33
M  V30 27 1 31 34
M  V30 28 1 31 35
M  V30 29 1 36 37
M  V30 30 1 36 38
M  V30 31 1 36 39
M  V30 32 1 36 40
M  V30 33 1 41 42
M  V30 34 1 41 43
M  V30 35 1 41 44
M  V30 36 1 41 45
M  V30 37 1 46 47
M  V30 38 1 47 48
M  V30 39 1 49 50
M  V30 40 1 50 51
M  V30 41 1 52 53
M  V30 42 1 53 54
M  V30 43 1 55 56
M  V30 44 1 56 57
M  V30 45 1 58 59
M  V30 46 1 59 60
M  V30 47 1 61 62
M  V30 48 1 62 63
M  V30 49 1 64 65
M  V30 50 1 65 66
M  V30 51 1 67 68
M  V30 52 1 68 69
M  V30 53 1 70 71
M  V30 54 1 71 72
M  V30 55 1 73 74
M  V30 56 1 74 75
M  V30 57 1 76 77
M  V30 58 1 77 78
M  V30 59 1 79 80
M  V30 60 1 80 81
M  V30 61 1 82 83
M  V30 62 1 83 84
M  V30 63 1 85 86
M  V30 64 1 86 87
M  V30 65 1 88 89
M  V30 66 1 89 90
M  V30 67 1 91 92
M  V30 68 1 92 93
M  V30 69 1 94 95
M  V30 70 1 95 96
M  V30 71 1 97 98
M  V30 72 1 98 99
M  V30 73 1 2 55
M  V30 74 1 3 73
M  V30 75 1 4 49
M  V30 76 1 5 82
M  V30 77 1 7 85
M  V30 78 1 8 51
M  V30 79 1 9 75
M  V30 80 1 10 70
M  V30 81 1 12 52
M  V30 82 1 13 61
M  V30 83 1 14 64
M  V30 84 1 15 94
M  V30 85 1 17 58
M  V30 86 1 18 97
M  V30 87 1 19 46
M  V30 88 1 20 66
M  V30 89 1 22 91
M  V30 90 1 23 79
M  V30 91 1 24 96
M  V30 92 1 25 57
M  V30 93 1 27 87
M  V30 94 1 28 88
M  V30 95 1 29 72
M  V30 96 1 30 81
M  V30 97 1 32 93
M  V30 98 1 33 76
M  V30 99 1 34 54
M  V30 100 1 35 99
M  V30 101 1 37 67
M  V30 102 1 38 63
M  V30 103 1 39 84
M  V30 104 1 40 90
M  V30 105 1 42 48
M  V30 106 1 43 60
M  V30 107 1 44 78
M  V30 108 1 45 69
M  V30 END BOND
M  V30 END CTAB
M  END

$$$$
