
     RDKit          3D

  0  0  0  0  0  0  0  0  0  0999 V3000
M  V30 BEGIN CTAB
M  V30 COUNTS 99 108 0 0 0
M  V30 BEGIN ATOM
M  V30 1 Pd -4.9794 0.6586 2.1199 0
M  V30 2 Pb -4.7295 0.5094 3.0752 0
M  V30 3 Pb -5.2538 0.7824 1.1634 0
M  V30 4 Pb -5.9326 0.4570 2.3386 0
M  V30 5 Pb -4.0111 0.8245 1.9269 0
M  V30 6 Pd -7.8964 -2.4752 -0.4272 0
M  V30 7 Pb -7.5820 -2.9530 -1.2448 0
M  V30 8 Pb -8.1882 -1.9991 0.3995 0
M  V30 9 Pb -7.6199 -1.5930 -0.8097 0
M  V30 10 Pb -8.0202 -3.3657 0.0126 0
M  V30 11 Pd 3.6089 5.0769 2.3253 0
M  V30 12 Pb 4.3484 4.6182 2.8211 0
M  V30 13 Pb 2.8411 5.3991 1.7722 0
M  V30 14 Pb 4.2198 5.3083 1.5715 0
M  V30 15 Pb 2.9853 4.8141 3.0572 0
M  V30 16 Pd 6.7941 1.7815 -3.4473 0
M  V30 17 Pb 6.8727 0.8347 -3.7481 0
M  V30 18 Pb 7.0680 1.5259 -2.5188 0
M  V30 19 Pb 6.4546 2.0162 -4.3622 0
M  V30 20 Pb 6.7015 2.7198 -3.1242 0
M  V30 21 Pd -0.4058 -0.8175 4.7619 0
M  V30 22 Pb 0.5604 -1.0336 4.6017 0
M  V30 23 Pb -0.6724 -1.7562 4.5352 0
M  V30 24 Pb -0.1534 0.1237 4.9746 0
M  V30 25 Pb -1.3584 -0.6002 4.9762 0
M  V30 26 Pd -4.0931 -5.3325 -0.1773 0
M  V30 27 Pb -4.5960 -5.2665 -1.0363 0
M  V30 28 Pb -3.2924 -4.9515 -0.6350 0
M  V30 29 Pb -4.9441 -5.6203 0.2662 0
M  V30 30 Pb -3.5930 -5.3368 0.6897 0
M  V30 31 Pd 4.7392 0.1291 1.8216 0
M  V30 32 Pb 4.1469 -0.2602 2.5344 0
M  V30 33 Pb 4.2883 -0.4634 1.1505 0
M  V30 34 Pb 5.1385 0.7819 2.4712 0
M  V30 35 Pb 5.4533 0.4043 1.1680 0
M  V30 36 Pd -0.8693 1.3817 -1.8494 0
M  V30 37 Pb -0.7119 1.4797 -2.8314 0
M  V30 38 Pb -0.7692 2.3654 -1.6992 0
M  V30 39 Pb -1.0201 1.2854 -0.8664 0
M  V30 40 Pb -0.8951 0.3882 -1.9600 0
M  V30 41 Pd 2.9805 -0.3784 -5.2764 0
M  V30 42 Pb 3.4211 0.2720 -5.8938 0
M  V30 43 Pb 3.8463 -0.8684 -5.2116 0
M  V30 44 Pb 2.6504 -0.9337 -4.5160 0
M  V30 45 Pb 2.1197 0.1279 -5.3405 0
M  V30 46 Ag 4.6442 5.4489 0.9726 0
M  V30 47 Fe 5.6772 4.5246 -0.9513 0
M  V30 48 Ag 6.6240 3.3908 -2.8062 0
M  V30 49 Ag 3.9000 -0.8734 0.6531 0
M  V30 50 Fe 3.1502 -1.1774 -1.5809 0
M  V30 51 Ag 2.5281 -1.2927 -3.8708 0
M  V30 52 Ag -0.8916 -2.4531 4.3579 0
M  V30 53 Fe -2.0375 -3.9074 2.8678 0
M  V30 54 Ag -3.2014 -5.2953 1.3292 0
M  V30 55 Ag -2.7324 -4.6037 -0.9885 0
M  V30 56 Fe -1.7723 -2.5006 -1.5278 0
M  V30 57 Ag -0.8761 -0.3590 -2.0240 0
M  V30 58 Ag 2.5248 4.5722 3.5930 0
M  V30 59 Fe 1.2570 2.7424 4.4100 0
M  V30 60 Ag 0.0370 0.8334 5.1105 0
M  V30 61 Ag 2.2676 5.5386 1.3102 0
M  V30 62 Fe 0.7395 4.4477 -0.1438 0
M  V30 63 Ag -0.6410 3.0791 -1.5078 0
M  V30 64 Ba -0.5934 1.5310 -3.5695 0
M  V30 65 Ga 0.4479 1.0269 -4.4846 0
M  V30 66 Ba 1.4860 0.5253 -5.4047 0
M  V30 67 Ba -8.0059 -4.0405 0.3421 0
M  V30 68 Ga -6.8587 -4.9606 0.4868 0
M  V30 69 Ba -5.6241 -5.7704 0.5502 0
M  V30 70 Ba -5.5192 0.8489 0.4619 0
M  V30 71 Ga -6.4269 -0.0084 -0.3299 0
M  V30 72 Ba -7.3368 -0.9351 -1.0358 0
M  V30 73 Ba 6.1619 2.1361 -5.0463 0
M  V30 74 Ga 5.0046 1.5074 -5.7177 0
M  V30 75 Ba 3.8273 0.7909 -6.2514 0
M  V30 76 Ba -6.6431 0.2707 2.4810 0
M  V30 77 Ga -7.5495 -0.6578 1.7869 0
M  V30 78 Ba -8.3629 -1.6084 1.0123 0
M  V30 79 Ba -3.2688 0.9212 1.8609 0
M  V30 80 Ga -2.2258 1.0782 0.8292 0
M  V30 81 Ba -1.1115 1.2415 -0.1241 0
M  V30 82 Ba -7.3112 -3.3512 -1.8165 0
M  V30 83 Ga -6.1679 -4.2755 -1.8227 0
M  V30 84 Ba -5.0038 -5.1573 -1.6527 0
M  V30 85 Ba 4.8622 4.2009 3.1779 0
M  V30 86 Ga 5.1766 2.7586 3.0767 0
M  V30 87 Ba 5.4347 1.3099 2.9206 0
M  V30 88 Ba 1.2903 -1.2075 4.5426 0
M  V30 89 Ga 2.4954 -0.8597 3.7571 0
M  V30 90 Ba 3.7946 -0.6397 3.0841 0
M  V30 91 Ba -4.5380 0.3861 3.7883 0
M  V30 92 Ga -3.2970 -0.0232 4.4706 0
M  V30 93 Ba -2.0641 -0.4321 5.1678 0
M  V30 94 Ba 6.8694 0.1307 -3.9947 0
M  V30 95 Ga 5.7437 -0.6093 -4.5786 0
M  V30 96 Ba 4.5156 -1.1901 -5.1357 0
M  V30 97 Ba 7.2690 1.3541 -1.8156 0
M  V30 98 Ga 6.6027 0.9630 -0.5527 0
M  V30 99 Ba 6.0777 0.5694 0.7738 0
M  V30 END ATOM
M  V30 BEGIN BOND
M  V30 1 1 1 2
M  V30 2 1 1 3
M  V30 3 1 1 4
M  V30 4 1 1 5
M  V30 5 1 6 7
M  V30 6 1 6 8
M  V30 7 1 6 9
M  V30 8 1 6 10
M  V30 9 1 11 12
M  V30 10 1 11 13
M  V30 11 1 11 14
M  V30 12 1 11 15
M  V30 13 1 16 17
M  V30 14 1 16 18
M  V30 15 1 16 19
M  V30 16 1 16 20
M  V30 17 1 21 22
M  V30 18 1 21 23
M  V30 19 1 21 24
M  V30 20 1 21 25
M  V30 21 1 26 27
M  V30 22 1 26 28
M  V30 23 1 26 29
M  V30 24 1 26 30
M  V30 25 1 31 32
M  V30 26 1 31 33
M  V30 27 1 31 34
M  V30 28 1 31 35
M  V30 29 1 36 37
M  V30 30 1 36 38
M  V30 31 1 36 39
M  V30 32 1 36 40
M  V30 33 1 41 42
M  V30 34 1 41 43
M  V30 35 1 41 44
M  V30 36 1 41 45
M  V30 37 1 46 47
M  V30 38 1 47 48
M  V30 39 1 49 50
M  V30 40 1 50 51
M  V30 41 1 52 53
M  V30 42 1 53 54
M  V30 43 1 55 56
M  V30 44 1 56 57
M  V30 45 1 58 59
M  V30 46 1 59 60
M  V30 47 1 61 62
M  V30 48 1 62 63
M  V30 49 1 64 65
M  V30 50 1 65 66
M  V30 51 1 67 68
M  V30 52 1 68 69
M  V30 53 1 70 71
M  V30 54 1 71 72
M  V30 55 1 73 74
M  V30 56 1 74 75
M  V30 57 1 76 77
M  V30 58 1 77 78
M  V30 59 1 79 80
M  V30 60 1 80 81
M  V30 61 1 82 83
M  V30 62 1 83 84
M  V30 63 1 85 86
M  V30 64 1 86 87
M  V30 65 1 88 89
M  V30 66 1 89 90
M  V30 67 1 91 92
M  V30 68 1 92 93
M  V30 69 1 94 95
M  V30 70 1 95 96
M  V30 71 1 97 98
M  V30 72 1 98 99
M  V30 73 1 2 91
M  V30 74 1 3 70
M  V30 75 1 4 76
M  V30 76 1 5 79
M  V30 77 1 7 82
M  V30 78 1 8 78
M  V30 79 1 9 72
M  V30 80 1 10 67
M  V30 81 1 12 85
M  V30 82 1 13 61
M  V30 83 1 14 46
M  V30 84 1 15 58
M  V30 85 1 17 94
M  V30 86 1 18 97
M  V30 87 1 19 73
M  V30 88 1 20 48
M  V30 89 1 22 88
M  V30 90 1 23 52
M  V30 91 1 24 60
M  V30 92 1 25 93
M  V30 93 1 27 84
M  V30 94 1 28 55
M  V30 95 1 29 69
M  V30 96 1 30 54
M  V30 97 1 32 90
M  V30 98 1 33 49
M  V30 99 1 34 87
M  V30 100 1 35 99
M  V30 101 1 37 64
M  V30 102 1 38 63
M  V30 103 1 39 81
M  V30 104 1 40 57
M  V30 105 1 42 75
M  V30 106 1 43 96
M  V30 107 1 44 51
M  V30 108 1 45 66
M  V30 END BOND
M  V30 END CTAB
M  END

$$$$
