
     RDKit          3D

  0  0  0  0  0  0  0  0  0  0999 V3000
M  V30 BEGIN CTAB
M  V30 COUNTS 99 108 0 0 0
M  V30 BEGIN ATOM
M  V30 1 Pd -6.2401 2.7332 0.8117 0
M  V30 2 Pb -6.0095 3.2912 1.6102 0
M  V30 3 Pb -6.0805 3.5233 0.2233 0
M  V30 4 Pb -6.4274 1.9093 1.3547 0
M  V30 5 Pb -6.3642 2.1645 0.0042 0
M  V30 6 Pd -5.8228 -4.4403 -0.4553 0
M  V30 7 Pb -5.2650 -4.8937 -1.1671 0
M  V30 8 Pb -6.2441 -3.9174 0.2899 0
M  V30 9 Pb -5.8736 -3.6058 -0.9967 0
M  V30 10 Pb -5.8292 -5.3004 0.0474 0
M  V30 11 Pd 2.9527 1.8331 5.4024 0
M  V30 12 Pb 2.3818 1.1745 5.8779 0
M  V30 13 Pb 3.6088 1.0915 5.1651 0
M  V30 14 Pb 2.2781 2.5689 5.6013 0
M  V30 15 Pb 3.5427 2.4998 4.9622 0
M  V30 16 Pd -0.6845 -6.9268 -1.0842 0
M  V30 17 Pb 0.0769 -7.2137 -0.5116 0
M  V30 18 Pb -0.2251 -6.0468 -1.2351 0
M  V30 19 Pb -1.4974 -6.6231 -1.6076 0
M  V30 20 Pb -1.2066 -7.7208 -0.7874 0
M  V30 21 Pd -1.3391 6.4105 -3.7644 0
M  V30 22 Pb -1.1810 7.1351 -3.0957 0
M  V30 23 Pb -0.3874 6.4025 -4.0761 0
M  V30 24 Pb -2.2819 6.3771 -3.4399 0
M  V30 25 Pb -1.4800 5.6092 -4.3427 0
M  V30 26 Pd 4.1815 -3.8041 3.5266 0
M  V30 27 Pb 3.8884 -4.7117 3.2420 0
M  V30 28 Pb 4.4797 -2.8734 3.8114 0
M  V30 29 Pb 4.7944 -3.8085 2.7363 0
M  V30 30 Pb 3.5368 -3.8218 4.2815 0
M  V30 31 Pd 4.0793 -3.4608 -2.2554 0
M  V30 32 Pb 4.9718 -3.2336 -2.6313 0
M  V30 33 Pb 3.6569 -3.1607 -3.1293 0
M  V30 34 Pb 4.5519 -3.6866 -1.3978 0
M  V30 35 Pb 3.1564 -3.6196 -1.8944 0
M  V30 36 Pd 3.1261 1.0984 -5.8337 0
M  V30 37 Pb 2.9945 0.0978 -5.7234 0
M  V30 38 Pb 4.1095 0.9563 -5.7849 0
M  V30 39 Pb 2.1420 1.2542 -5.9053 0
M  V30 40 Pb 3.2282 2.0943 -5.8358 0
M  V30 41 Pd -0.3071 6.5413 3.5621 0
M  V30 42 Pb -0.5147 7.1541 2.7990 0
M  V30 43 Pb -1.2772 6.3230 3.6942 0
M  V30 44 Pb 0.6561 6.7303 3.4103 0
M  V30 45 Pb -0.0535 5.8942 4.3049 0
M  V30 46 Ag 0.3092 6.3078 -4.3422 0
M  V30 47 Fe 1.8625 4.6699 -5.0872 0
M  V30 48 Ag 3.2194 2.8431 -5.7738 0
M  V30 49 Ag -1.5027 4.9676 -4.7268 0
M  V30 50 Fe -0.1512 3.1412 -5.4115 0
M  V30 51 Ag 1.4218 1.4517 -5.9615 0
M  V30 52 Ag -1.1139 7.6097 -2.5205 0
M  V30 53 Fe -0.8624 7.7064 -0.1612 0
M  V30 54 Ag -0.6084 7.5928 2.1972 0
M  V30 55 Ag -5.7260 -5.9906 0.3038 0
M  V30 56 Fe -3.9144 -7.4921 0.1287 0
M  V30 57 Ag -1.7326 -8.1459 -0.4838 0
M  V30 58 Ag 3.8732 3.0789 4.6415 0
M  V30 59 Fe 3.0356 5.1257 3.8319 0
M  V30 60 Ag 1.3911 6.7341 3.3268 0
M  V30 61 Ag -6.3911 1.6834 -0.5642 0
M  V30 62 Fe -6.1969 -0.6165 -1.0988 0
M  V30 63 Ag -5.9666 -2.9602 -1.3586 0
M  V30 64 Ag 0.6293 -7.3822 -0.0413 0
M  V30 65 Fe 2.1916 -6.4820 1.4947 0
M  V30 66 Ag 3.6683 -5.3728 2.9778 0
M  V30 67 Ag -6.5935 1.2447 1.6718 0
M  V30 68 Fe -6.5865 -1.1145 1.3519 0
M  V30 69 Ag -6.4772 -3.4319 0.8176 0
M  V30 70 Ag 2.0384 0.5922 6.1782 0
M  V30 71 Fe 2.2336 -1.7264 5.8142 0
M  V30 72 Ag 3.0480 -3.7016 4.8234 0
M  V30 73 Ag -5.9651 4.0939 -0.2466 0
M  V30 74 Fe -4.4985 5.2493 -1.7103 0
M  V30 75 Ag -2.9727 6.3502 -3.1554 0
M  V30 76 Ag 5.5555 -2.9272 -2.9695 0
M  V30 77 Fe 5.6707 -1.0717 -4.4181 0
M  V30 78 Ag 4.8045 0.7205 -5.6800 0
M  V30 79 Ag -5.7681 3.7327 2.1683 0
M  V30 80 Fe -3.9161 4.9517 3.0273 0
M  V30 81 Ag -1.9995 6.1335 3.7915 0
M  V30 82 Ba 4.1433 0.5719 4.9828 0
M  V30 83 Ga 4.3510 -0.8295 4.5037 0
M  V30 84 Ba 4.7521 -2.1917 4.0346 0
M  V30 85 Ba -4.8194 -5.2075 -1.6995 0
M  V30 86 Ga -3.4605 -5.8124 -1.8047 0
M  V30 87 Ba -2.1185 -6.4300 -2.0070 0
M  V30 88 Ba 3.3455 -2.9564 -3.7982 0
M  V30 89 Ga 3.1444 -1.7636 -4.6752 0
M  V30 90 Ba 2.8791 -0.6539 -5.6398 0
M  V30 91 Ba 0.0593 -5.3483 -1.2468 0
M  V30 92 Ga 1.2989 -4.5771 -1.4890 0
M  V30 93 Ba 2.4329 -3.6465 -1.6842 0
M  V30 94 Ba 5.2370 -3.8752 2.1339 0
M  V30 95 Ga 5.0674 -3.8267 0.6653 0
M  V30 96 Ba 5.0143 -3.8058 -0.8125 0
M  V30 97 Ba 1.7600 3.1016 5.7923 0
M  V30 98 Ga 0.9776 4.2584 5.2578 0
M  V30 99 Ba 0.1233 5.4287 4.8879 0
M  V30 END ATOM
M  V30 BEGIN BOND
M  V30 1 1 1 2
M  V30 2 1 1 3
M  V30 3 1 1 4
M  V30 4 1 1 5
M  V30 5 1 6 7
M  V30 6 1 6 8
M  V30 7 1 6 9
M  V30 8 1 6 10
M  V30 9 1 11 12
M  V30 10 1 11 13
M  V30 11 1 11 14
M  V30 12 1 11 15
M  V30 13 1 16 17
M  V30 14 1 16 18
M  V30 15 1 16 19
M  V30 16 1 16 20
M  V30 17 1 21 22
M  V30 18 1 21 23
M  V30 19 1 21 24
M  V30 20 1 21 25
M  V30 21 1 26 27
M  V30 22 1 26 28
M  V30 23 1 26 29
M  V30 24 1 26 30
M  V30 25 1 31 32
M  V30 26 1 31 33
M  V30 27 1 31 34
M  V30 28 1 31 35
M  V30 29 1 36 37
M  V30 30 1 36 38
M  V30 31 1 36 39
M  V30 32 1 36 40
M  V30 33 1 41 42
M  V30 34 1 41 43
M  V30 35 1 41 44
M  V30 36 1 41 45
M  V30 37 1 46 47
M  V30 38 1 47 48
M  V30 39 1 49 50
M  V30 40 1 50 51
M  V30 41 1 52 53
M  V30 42 1 53 54
M  V30 43 1 55 56
M  V30 44 1 56 57
M  V30 45 1 58 59
M  V30 46 1 59 60
M  V30 47 1 61 62
M  V30 48 1 62 63
M  V30 49 1 64 65
M  V30 50 1 65 66
M  V30 51 1 67 68
M  V30 52 1 68 69
M  V30 53 1 70 71
M  V30 54 1 71 72
M  V30 55 1 73 74
M  V30 56 1 74 75
M  V30 57 1 76 77
M  V30 58 1 77 78
M  V30 59 1 79 80
M  V30 60 1 80 81
M  V30 61 1 82 83
M  V30 62 1 83 84
M  V30 63 1 85 86
M  V30 64 1 86 87
M  V30 65 1 88 89
M  V30 66 1 89 90
M  V30 67 1 91 92
M  V30 68 1 92 93
M  V30 69 1 94 95
M  V30 70 1 95 96
M  V30 71 1 97 98
M  V30 72 1 98 99
M  V30 73 1 2 79
M  V30 74 1 3 73
M  V30 75 1 4 67
M  V30 76 1 5 61
M  V30 77 1 7 85
M  V30 78 1 8 69
M  V30 79 1 9 63
M  V30 80 1 10 55
M  V30 81 1 12 70
M  V30 82 1 13 82
M  V30 83 1 14 97
M  V30 84 1 15 58
M  V30 85 1 17 64
M  V30 86 1 18 91
M  V30 87 1 19 87
M  V30 88 1 20 57
M  V30 89 1 22 52
M  V30 90 1 23 46
M  V30 91 1 24 75
M  V30 92 1 25 49
M  V30 93 1 27 66
M  V30 94 1 28 84
M  V30 95 1 29 94
M  V30 96 1 30 72
M  V30 97 1 32 76
M  V30 98 1 33 88
M  V30 99 1 34 96
M  V30 100 1 35 93
M  V30 101 1 37 90
M  V30 102 1 38 78
M  V30 103 1 39 51
M  V30 104 1 40 48
M  V30 105 1 42 54
M  V30 106 1 43 81
M  V30 107 1 44 60
M  V30 108 1 45 99
M  V30 END BOND
M  V30 END CTAB
M  END

$$$$
