
     RDKit          3D

  0  0  0  0  0  0  0  0  0  0999 V3000
M  V30 BEGIN CTAB
M  V30 COUNTS 99 108 0 0 0
M  V30 BEGIN ATOM
M  V30 1 Pd 3.6835 7.3232 -4.4650 0
M  V30 2 Pb 4.4294 6.6405 -4.4785 0
M  V30 3 Pb 3.1804 6.8034 -5.1757 0
M  V30 4 Pb 4.1359 7.7723 -3.7003 0
M  V30 5 Pb 2.8861 7.9089 -4.3513 0
M  V30 6 Pd -7.2351 -3.9249 1.0526 0
M  V30 7 Pb -7.6734 -3.6383 1.8981 0
M  V30 8 Pb -6.8100 -4.6964 1.5564 0
M  V30 9 Pb -6.8044 -4.2037 0.1928 0
M  V30 10 Pb -7.5316 -3.0874 0.5961 0
M  V30 11 Pd 1.9834 1.2417 2.4316 0
M  V30 12 Pb 2.2152 1.1765 3.4015 0
M  V30 13 Pb 1.0178 1.3781 2.6293 0
M  V30 14 Pb 2.9465 1.1077 2.1885 0
M  V30 15 Pb 1.6512 1.2103 1.4902 0
M  V30 16 Pd -3.8669 -1.3213 -1.1485 0
M  V30 17 Pb -4.8094 -0.9922 -1.0702 0
M  V30 18 Pb -2.9449 -1.7127 -1.2178 0
M  V30 19 Pb -3.5597 -0.6179 -0.5096 0
M  V30 20 Pb -4.2138 -2.1075 -1.6543 0
M  V30 21 Pd 5.8264 2.8791 -1.3552 0
M  V30 22 Pb 5.7499 2.3179 -0.5289 0
M  V30 23 Pb 5.9755 3.7022 -0.8147 0
M  V30 24 Pb 5.6963 2.0656 -1.9206 0
M  V30 25 Pb 5.9057 3.4444 -2.1947 0
M  V30 26 Pd 2.0382 -1.1988 -2.4402 0
M  V30 27 Pb 2.4004 -1.4513 -1.5428 0
M  V30 28 Pb 1.7208 -0.9572 -3.3588 0
M  V30 29 Pb 2.9374 -0.8466 -2.7008 0
M  V30 30 Pb 1.1675 -1.6295 -2.1850 0
M  V30 31 Pd 1.2119 -2.9266 5.1324 0
M  V30 32 Pb 1.5602 -2.0523 5.4754 0
M  V30 33 Pb 0.8629 -3.7939 4.7755 0
M  V30 34 Pb 0.6123 -3.0325 5.9263 0
M  V30 35 Pb 1.7948 -2.8219 4.3271 0
M  V30 36 Pd -0.0635 3.1645 -4.8120 0
M  V30 37 Pb -0.5318 3.9738 -4.4677 0
M  V30 38 Pb -0.3618 2.6057 -4.0453 0
M  V30 39 Pb 0.3433 2.3313 -5.1840 0
M  V30 40 Pb 0.4017 3.7586 -5.4843 0
M  V30 41 Pd -3.5396 -5.1249 5.4507 0
M  V30 42 Pb -2.7143 -5.4680 5.0029 0
M  V30 43 Pb -4.3544 -4.7545 5.8842 0
M  V30 44 Pb -2.9641 -4.7175 6.1614 0
M  V30 45 Pb -4.1263 -5.5044 4.7109 0
M  V30 46 Ag 4.4821 7.9313 -3.0637 0
M  V30 47 Fe 5.4254 6.4782 -1.4628 0
M  V30 48 Ag 6.0466 4.3929 -0.5514 0
M  V30 49 Ag 2.6895 -1.6517 -0.8802 0
M  V30 50 Fe 2.4486 -2.1902 1.4203 0
M  V30 51 Ag 2.2281 -2.7315 3.7221 0
M  V30 52 Ag 1.2326 1.1517 0.8701 0
M  V30 53 Fe 0.3985 1.6806 -1.2880 0
M  V30 54 Ag -0.4529 2.1673 -3.4494 0
M  V30 55 Ag 0.2770 1.4601 2.6239 0
M  V30 56 Fe -1.6157 0.7209 1.4010 0
M  V30 57 Ag -3.3495 -0.1515 0.0376 0
M  V30 58 Ag -7.8820 -3.4828 2.5920 0
M  V30 59 Fe -6.7867 -3.7935 4.6547 0
M  V30 60 Ag -5.0114 -4.4579 6.0538 0
M  V30 61 Ag 2.1929 8.1372 -4.2266 0
M  V30 62 Fe 0.2970 6.7420 -4.1268 0
M  V30 63 Ag -0.7774 4.6494 -4.2791 0
M  V30 64 Ba 2.7931 6.4170 -5.7092 0
M  V30 65 Ga 1.7884 5.3176 -5.7980 0
M  V30 66 Ba 0.7846 4.2242 -5.9497 0
M  V30 67 Ba 5.6184 1.4660 -2.3630 0
M  V30 68 Ga 4.5962 0.4339 -2.6170 0
M  V30 69 Ba 3.6200 -0.6283 -2.9228 0
M  V30 70 Ba 0.5873 -4.4411 4.5133 0
M  V30 71 Ga -0.7370 -5.0874 4.5829 0
M  V30 72 Ba -2.0778 -5.6951 4.6786 0
M  V30 73 Ba -7.6494 -2.4314 0.2544 0
M  V30 74 Ga -6.6478 -1.5658 -0.3966 0
M  V30 75 Ba -5.5363 -0.8129 -1.0083 0
M  V30 76 Ba -2.2967 -2.0938 -1.2704 0
M  V30 77 Ga -0.8692 -1.9605 -1.6361 0
M  V30 78 Ba 0.5737 -2.0340 -1.9557 0
M  V30 79 Ba -6.4883 -4.3569 -0.4712 0
M  V30 80 Ga -5.5004 -3.6013 -1.2620 0
M  V30 81 Ba -4.5099 -2.7368 -1.9276 0
M  V30 82 Ba 2.3469 1.0610 4.1303 0
M  V30 83 Ga 2.1092 -0.1398 4.9549 0
M  V30 84 Ba 1.8353 -1.3878 5.6939 0
M  V30 85 Ba 0.1434 -3.1364 6.5031 0
M  V30 86 Ga -1.1888 -3.7627 6.6131 0
M  V30 87 Ba -2.5197 -4.3983 6.6759 0
M  V30 88 Ba -6.4734 -5.2680 1.9375 0
M  V30 89 Ga -5.5141 -5.4790 3.0649 0
M  V30 90 Ba -4.5685 -5.8228 4.1707 0
M  V30 91 Ba 4.9803 6.1147 -4.4741 0
M  V30 92 Ga 5.4494 4.9908 -3.6128 0
M  V30 93 Ba 6.0091 3.8470 -2.8365 0
M  V30 94 Ba 3.6760 1.0015 2.0386 0
M  V30 95 Ga 4.6689 1.4588 1.0443 0
M  V30 96 Ba 5.7070 1.8799 0.0806 0
M  V30 97 Ba 1.5592 -0.7642 -4.0672 0
M  V30 98 Ga 1.0733 0.4495 -4.7527 0
M  V30 99 Ba 0.5850 1.6662 -5.4310 0
M  V30 END ATOM
M  V30 BEGIN BOND
M  V30 1 1 1 2
M  V30 2 1 1 3
M  V30 3 1 1 4
M  V30 4 1 1 5
M  V30 5 1 6 7
M  V30 6 1 6 8
M  V30 7 1 6 9
M  V30 8 1 6 10
M  V30 9 1 11 12
M  V30 10 1 11 13
M  V30 11 1 11 14
M  V30 12 1 11 15
M  V30 13 1 16 17
M  V30 14 1 16 18
M  V30 15 1 16 19
M  V30 16 1 16 20
M  V30 17 1 21 22
M  V30 18 1 21 23
M  V30 19 1 21 24
M  V30 20 1 21 25
M  V30 21 1 26 27
M  V30 22 1 26 28
M  V30 23 1 26 29
M  V30 24 1 26 30
M  V30 25 1 31 32
M  V30 26 1 31 33
M  V30 27 1 31 34
M  V30 28 1 31 35
M  V30 29 1 36 37
M  V30 30 1 36 38
M  V30 31 1 36 39
M  V30 32 1 36 40
M  V30 33 1 41 42
M  V30 34 1 41 43
M  V30 35 1 41 44
M  V30 36 1 41 45
M  V30 37 1 46 47
M  V30 38 1 47 48
M  V30 39 1 49 50
M  V30 40 1 50 51
M  V30 41 1 52 53
M  V30 42 1 53 54
M  V30 43 1 55 56
M  V30 44 1 56 57
M  V30 45 1 58 59
M  V30 46 1 59 60
M  V30 47 1 61 62
M  V30 48 1 62 63
M  V30 49 1 64 65
M  V30 50 1 65 66
M  V30 51 1 67 68
M  V30 52 1 68 69
M  V30 53 1 70 71
M  V30 54 1 71 72
M  V30 55 1 73 74
M  V30 56 1 74 75
M  V30 57 1 76 77
M  V30 58 1 77 78
M  V30 59 1 79 80
M  V30 60 1 80 81
M  V30 61 1 82 83
M  V30 62 1 83 84
M  V30 63 1 85 86
M  V30 64 1 86 87
M  V30 65 1 88 89
M  V30 66 1 89 90
M  V30 67 1 91 92
M  V30 68 1 92 93
M  V30 69 1 94 95
M  V30 70 1 95 96
M  V30 71 1 97 98
M  V30 72 1 98 99
M  V30 73 1 2 91
M  V30 74 1 3 64
M  V30 75 1 4 46
M  V30 76 1 5 61
M  V30 77 1 7 58
M  V30 78 1 8 88
M  V30 79 1 9 79
M  V30 80 1 10 73
M  V30 81 1 12 82
M  V30 82 1 13 55
M  V30 83 1 14 94
M  V30 84 1 15 52
M  V30 85 1 17 75
M  V30 86 1 18 76
M  V30 87 1 19 57
M  V30 88 1 20 81
M  V30 89 1 22 96
M  V30 90 1 23 48
M  V30 91 1 24 67
M  V30 92 1 25 93
M  V30 93 1 27 49
M  V30 94 1 28 97
M  V30 95 1 29 69
M  V30 96 1 30 78
M  V30 97 1 32 84
M  V30 98 1 33 70
M  V30 99 1 34 85
M  V30 100 1 35 51
M  V30 101 1 37 63
M  V30 102 1 38 54
M  V30 103 1 39 99
M  V30 104 1 40 66
M  V30 105 1 42 72
M  V30 106 1 43 60
M  V30 107 1 44 87
M  V30 108 1 45 90
M  V30 END BOND
M  V30 END CTAB
M  END

$$$$
