
     RDKit          3D

  0  0  0  0  0  0  0  0  0  0999 V3000
M  V30 BEGIN CTAB
M  V30 COUNTS 99 108 0 0 0
M  V30 BEGIN ATOM
M  V30 1 Pd 3.1067 1.2195 -5.1782 0
M  V30 2 Pb 2.6791 0.4146 -5.5920 0
M  V30 3 Pb 3.5137 2.0610 -4.8207 0
M  V30 4 Pb 2.3480 1.7623 -5.5320 0
M  V30 5 Pb 3.8102 0.6482 -4.7484 0
M  V30 6 Pd 2.5420 3.9342 5.2560 0
M  V30 7 Pb 1.8392 3.3290 5.6334 0
M  V30 8 Pb 3.2558 4.5453 4.8806 0
M  V30 9 Pb 3.2534 3.2849 5.5143 0
M  V30 10 Pb 1.8588 4.5777 4.9203 0
M  V30 11 Pd -4.1925 -5.7090 0.2589 0
M  V30 12 Pb -4.5171 -5.5016 -0.6921 0
M  V30 13 Pb -3.7850 -5.8135 1.1607 0
M  V30 14 Pb -4.9777 -5.2874 0.7195 0
M  V30 15 Pb -3.4106 -6.1892 -0.1107 0
M  V30 16 Pd -5.3370 -0.9832 2.3981 0
M  V30 17 Pb -5.7426 -1.8664 2.6239 0
M  V30 18 Pb -5.7783 -1.0855 1.5155 0
M  V30 19 Pb -4.9331 -0.8615 3.3094 0
M  V30 20 Pb -4.9354 -0.1322 2.0472 0
M  V30 21 Pd -0.4476 -1.2636 5.0276 0
M  V30 22 Pb -0.1583 -0.3675 5.3782 0
M  V30 23 Pb -0.7707 -2.1769 4.7882 0
M  V30 24 Pb -1.3840 -1.0246 5.2886 0
M  V30 25 Pb 0.4580 -1.5420 4.6950 0
M  V30 26 Pd -4.2849 1.2618 -4.4102 0
M  V30 27 Pb -5.0022 0.7343 -3.9740 0
M  V30 28 Pb -4.4281 0.7148 -5.2317 0
M  V30 29 Pb -3.5461 1.7722 -4.8478 0
M  V30 30 Pb -4.1204 1.6987 -3.5200 0
M  V30 31 Pd -2.7190 -3.7724 -5.2665 0
M  V30 32 Pb -1.9549 -3.4212 -5.8068 0
M  V30 33 Pb -3.3259 -3.0945 -5.6894 0
M  V30 34 Pb -2.0974 -4.4682 -4.9377 0
M  V30 35 Pb -3.4462 -4.1132 -4.6258 0
M  V30 36 Pd 6.4261 -0.7695 1.4280 0
M  V30 37 Pb 5.7475 -1.4380 1.7310 0
M  V30 38 Pb 7.0275 -0.0178 1.1669 0
M  V30 39 Pb 6.4661 -0.4725 2.3792 0
M  V30 40 Pb 6.3391 -1.0146 0.4597 0
M  V30 41 Pd 4.9787 6.1767 0.4561 0
M  V30 42 Pb 5.0256 6.1914 1.4646 0
M  V30 43 Pb 4.9065 6.0775 -0.5347 0
M  V30 44 Pb 5.8279 5.6535 0.4183 0
M  V30 45 Pb 4.0944 6.6323 0.5216 0
M  V30 46 Ag 2.3240 -0.1466 -5.9430 0
M  V30 47 Fe 0.5043 -1.6684 -6.0732 0
M  V30 48 Ag -1.3364 -3.1685 -6.1475 0
M  V30 49 Ag 1.0750 -1.8478 4.3862 0
M  V30 50 Fe 3.1434 -1.8476 3.2121 0
M  V30 51 Ag 5.2168 -1.8642 2.0469 0
M  V30 52 Ag -6.0987 -1.1334 0.8482 0
M  V30 53 Fe -5.9358 -0.4769 -1.4164 0
M  V30 54 Ag -5.4947 0.3342 -3.5920 0
M  V30 55 Ag -2.8324 -6.4879 -0.4547 0
M  V30 56 Fe -1.8525 -6.0850 -2.5490 0
M  V30 57 Ag -1.6917 -4.9946 -4.6213 0
M  V30 58 Ag 1.4805 5.0870 4.5324 0
M  V30 59 Fe 2.0656 6.2469 2.5596 0
M  V30 60 Ag 3.4177 6.8653 0.7240 0
M  V30 61 Ag -4.6676 0.4653 1.6709 0
M  V30 62 Fe -4.2959 1.3105 -0.5250 0
M  V30 63 Ag -4.0223 1.9327 -2.8081 0
M  V30 64 Ag 3.8099 2.7985 5.6215 0
M  V30 65 Fe 5.1957 1.2475 4.4835 0
M  V30 66 Ag 6.4161 -0.2249 3.0822 0
M  V30 67 Ag 1.7337 2.1322 -5.7436 0
M  V30 68 Fe -0.6273 2.2092 -5.5204 0
M  V30 69 Ag -2.9736 2.1255 -5.1769 0
M  V30 70 Ag 4.2961 0.1953 -4.3932 0
M  V30 71 Fe 5.3089 -0.4957 -2.3549 0
M  V30 72 Ag 6.2834 -1.1350 -0.2813 0
M  V30 73 Ag 7.3990 0.6059 0.9901 0
M  V30 74 Fe 7.0707 2.9311 0.6578 0
M  V30 75 Ag 6.4191 5.1962 0.3940 0
M  V30 76 Ag 3.7777 2.7286 -4.6000 0
M  V30 77 Fe 4.3277 4.3374 -2.9418 0
M  V30 78 Ag 4.8749 5.9310 -1.2681 0
M  V30 79 Ag -3.4306 -5.8064 1.8160 0
M  V30 80 Fe -2.2206 -4.3921 3.2846 0
M  V30 81 Ag -1.0302 -2.8655 4.6536 0
M  V30 82 Ba 1.3176 2.8918 5.9510 0
M  V30 83 Ga 0.6836 1.5687 5.7636 0
M  V30 84 Ba -0.0552 0.2881 5.7386 0
M  V30 85 Ba -4.6657 -0.7509 4.0059 0
M  V30 86 Ga -3.3705 -0.8103 4.7169 0
M  V30 87 Ba -2.0953 -0.8584 5.4639 0
M  V30 88 Ba 3.8015 5.0196 4.6415 0
M  V30 89 Ga 4.3947 5.5770 3.3957 0
M  V30 90 Ba 5.0674 6.1994 2.2230 0
M  V30 91 Ba -4.7626 -5.3426 -1.4109 0
M  V30 92 Ga -4.3012 -4.8470 -2.7567 0
M  V30 93 Ba -4.0084 -4.3716 -4.1560 0
M  V30 94 Ba -5.5233 -5.0331 1.1740 0
M  V30 95 Ga -5.8098 -3.7912 1.9227 0
M  V30 96 Ba -6.0779 -2.5356 2.6551 0
M  V30 97 Ba -4.5473 0.2305 -5.7889 0
M  V30 98 Ga -4.1469 -1.1824 -5.9409 0
M  V30 99 Ba -3.7401 -2.5956 -6.0738 0
M  V30 END ATOM
M  V30 BEGIN BOND
M  V30 1 1 1 2
M  V30 2 1 1 3
M  V30 3 1 1 4
M  V30 4 1 1 5
M  V30 5 1 6 7
M  V30 6 1 6 8
M  V30 7 1 6 9
M  V30 8 1 6 10
M  V30 9 1 11 12
M  V30 10 1 11 13
M  V30 11 1 11 14
M  V30 12 1 11 15
M  V30 13 1 16 17
M  V30 14 1 16 18
M  V30 15 1 16 19
M  V30 16 1 16 20
M  V30 17 1 21 22
M  V30 18 1 21 23
M  V30 19 1 21 24
M  V30 20 1 21 25
M  V30 21 1 26 27
M  V30 22 1 26 28
M  V30 23 1 26 29
M  V30 24 1 26 30
M  V30 25 1 31 32
M  V30 26 1 31 33
M  V30 27 1 31 34
M  V30 28 1 31 35
M  V30 29 1 36 37
M  V30 30 1 36 38
M  V30 31 1 36 39
M  V30 32 1 36 40
M  V30 33 1 41 42
M  V30 34 1 41 43
M  V30 35 1 41 44
M  V30 36 1 41 45
M  V30 37 1 46 47
M  V30 38 1 47 48
M  V30 39 1 49 50
M  V30 40 1 50 51
M  V30 41 1 52 53
M  V30 42 1 53 54
M  V30 43 1 55 56
M  V30 44 1 56 57
M  V30 45 1 58 59
M  V30 46 1 59 60
M  V30 47 1 61 62
M  V30 48 1 62 63
M  V30 49 1 64 65
M  V30 50 1 65 66
M  V30 51 1 67 68
M  V30 52 1 68 69
M  V30 53 1 70 71
M  V30 54 1 71 72
M  V30 55 1 73 74
M  V30 56 1 74 75
M  V30 57 1 76 77
M  V30 58 1 77 78
M  V30 59 1 79 80
M  V30 60 1 80 81
M  V30 61 1 82 83
M  V30 62 1 83 84
M  V30 63 1 85 86
M  V30 64 1 86 87
M  V30 65 1 88 89
M  V30 66 1 89 90
M  V30 67 1 91 92
M  V30 68 1 92 93
M  V30 69 1 94 95
M  V30 70 1 95 96
M  V30 71 1 97 98
M  V30 72 1 98 99
M  V30 73 1 2 46
M  V30 74 1 3 76
M  V30 75 1 4 67
M  V30 76 1 5 70
M  V30 77 1 7 82
M  V30 78 1 8 88
M  V30 79 1 9 64
M  V30 80 1 10 58
M  V30 81 1 12 91
M  V30 82 1 13 79
M  V30 83 1 14 94
M  V30 84 1 15 55
M  V30 85 1 17 96
M  V30 86 1 18 52
M  V30 87 1 19 85
M  V30 88 1 20 61
M  V30 89 1 22 84
M  V30 90 1 23 81
M  V30 91 1 24 87
M  V30 92 1 25 49
M  V30 93 1 27 54
M  V30 94 1 28 97
M  V30 95 1 29 69
M  V30 96 1 30 63
M  V30 97 1 32 48
M  V30 98 1 33 99
M  V30 99 1 34 57
M  V30 100 1 35 93
M  V30 101 1 37 51
M  V30 102 1 38 73
M  V30 103 1 39 66
M  V30 104 1 40 72
M  V30 105 1 42 90
M  V30 106 1 43 78
M  V30 107 1 44 75
M  V30 108 1 45 60
M  V30 END BOND
M  V30 END CTAB
M  END

$$$$
