
     RDKit          3D

  0  0  0  0  0  0  0  0  0  0999 V3000
M  V30 BEGIN CTAB
M  V30 COUNTS 99 108 0 0 0
M  V30 BEGIN ATOM
M  V30 1 Pd -2.2962 2.5725 1.0361 0
M  V30 2 Pb -1.7628 3.0761 0.3503 0
M  V30 3 Pb -2.2925 3.3928 1.6147 0
M  V30 4 Pb -2.4519 1.8263 0.3846 0
M  V30 5 Pb -2.7155 2.0296 1.7676 0
M  V30 6 Pd -3.8199 -3.0226 -0.0011 0
M  V30 7 Pb -3.2597 -2.8222 0.7992 0
M  V30 8 Pb -3.7737 -4.0030 0.2426 0
M  V30 9 Pb -3.7188 -2.0837 -0.3375 0
M  V30 10 Pb -4.4131 -3.2625 -0.7741 0
M  V30 11 Pd 0.1401 -6.8208 -0.2182 0
M  V30 12 Pb 1.0835 -6.6066 -0.4600 0
M  V30 13 Pb -0.8412 -6.8545 0.0219 0
M  V30 14 Pb -0.0859 -6.9544 -1.1807 0
M  V30 15 Pb 0.3384 -6.5430 0.7183 0
M  V30 16 Pd -0.0434 1.7459 -3.9058 0
M  V30 17 Pb -0.9365 2.1297 -4.1119 0
M  V30 18 Pb 0.8648 1.3599 -3.7223 0
M  V30 19 Pb -0.2168 1.0043 -4.5799 0
M  V30 20 Pb 0.0603 2.4604 -3.2126 0
M  V30 21 Pd 4.1713 -1.4743 2.2804 0
M  V30 22 Pb 3.3854 -2.0019 2.6155 0
M  V30 23 Pb 4.9002 -0.8891 1.9232 0
M  V30 24 Pb 4.2477 -2.1021 1.5069 0
M  V30 25 Pb 4.1337 -0.9237 3.1101 0
M  V30 26 Pd -3.5012 -2.7477 -5.2200 0
M  V30 27 Pb -2.7026 -2.2363 -5.5802 0
M  V30 28 Pb -4.0578 -1.9303 -5.3176 0
M  V30 29 Pb -2.9580 -3.5818 -5.1234 0
M  V30 30 Pb -4.2497 -3.1834 -4.7267 0
M  V30 31 Pd 0.9905 6.5727 2.0540 0
M  V30 32 Pb 0.8367 6.8791 1.1211 0
M  V30 33 Pb 1.0889 6.2327 2.9835 0
M  V30 34 Pb 1.9673 6.3994 1.8323 0
M  V30 35 Pb 0.0122 6.5695 2.2453 0
M  V30 36 Pd 0.0688 0.0803 5.0350 0
M  V30 37 Pb 0.0308 1.0107 5.3850 0
M  V30 38 Pb 1.0373 0.1039 5.2682 0
M  V30 39 Pb -0.8954 0.1134 4.7551 0
M  V30 40 Pb 0.1991 -0.8352 4.6507 0
M  V30 41 Pd 4.3307 2.9700 -1.0286 0
M  V30 42 Pb 4.1854 2.2015 -1.6490 0
M  V30 43 Pb 4.3753 3.7523 -0.3790 0
M  V30 44 Pb 3.7964 3.5364 -1.6459 0
M  V30 45 Pb 4.9274 2.4073 -0.4493 0
M  V30 46 Ag 0.8092 6.9645 0.3875 0
M  V30 47 Fe 1.9186 5.7197 -1.2723 0
M  V30 48 Ag 3.3753 4.0248 -2.0096 0
M  V30 49 Ag -1.6377 2.2816 -4.2918 0
M  V30 50 Fe -3.4043 0.8531 -4.9046 0
M  V30 51 Ag -4.3550 -1.2535 -5.3466 0
M  V30 52 Ag 1.7568 -6.3151 -0.6020 0
M  V30 53 Fe 3.1417 -4.5148 0.0834 0
M  V30 54 Ag 4.2810 -2.6392 0.9857 0
M  V30 55 Ag 1.0387 5.9306 3.6623 0
M  V30 56 Fe 0.5879 3.8919 4.7800 0
M  V30 57 Ag 0.1227 1.7185 5.5979 0
M  V30 58 Ag -2.7918 -2.8360 1.3768 0
M  V30 59 Fe -1.0310 -4.3231 1.8742 0
M  V30 60 Ag 0.3556 -6.1555 1.3504 0
M  V30 61 Ag -0.2798 -6.9511 -1.9029 0
M  V30 62 Fe -1.4081 -5.6552 -3.5405 0
M  V30 63 Ag -2.5738 -4.2189 -5.0281 0
M  V30 64 Ba -2.3632 4.0467 1.9844 0
M  V30 65 Ga -1.5477 5.2570 2.2136 0
M  V30 66 Ba -0.7024 6.4490 2.4299 0
M  V30 67 Ba 1.5431 1.0467 -3.6225 0
M  V30 68 Ga 2.7797 1.3398 -2.8702 0
M  V30 69 Ba 4.0117 1.6408 -2.1136 0
M  V30 70 Ba -2.9764 1.5980 2.3269 0
M  V30 71 Ga -2.3109 0.8781 3.4366 0
M  V30 72 Ba -1.6151 0.1699 4.5353 0
M  V30 73 Ba -0.3357 0.4585 -5.1052 0
M  V30 74 Ga -1.2483 -0.6835 -5.4175 0
M  V30 75 Ba -2.0957 -1.8438 -5.8304 0
M  V30 76 Ba -4.8707 -3.4839 -1.3304 0
M  V30 77 Ga -4.8470 -3.4845 -2.8061 0
M  V30 78 Ba -4.7804 -3.4613 -4.2802 0
M  V30 79 Ba -3.7063 -4.7475 0.3902 0
M  V30 80 Ga -2.6310 -5.7764 0.2989 0
M  V30 81 Ba -1.5765 -6.8274 0.2183 0
M  V30 82 Ba 5.4232 -0.4161 1.6655 0
M  V30 83 Ga 5.4001 0.7854 0.8040 0
M  V30 84 Ba 5.4146 1.9906 -0.0521 0
M  V30 85 Ba -1.3043 3.4531 -0.1155 0
M  V30 86 Ga -0.6242 3.2203 -1.4083 0
M  V30 87 Ba 0.0647 3.0101 -2.7004 0
M  V30 88 Ba 2.6998 6.2431 1.6671 0
M  V30 89 Ga 3.5064 5.2713 0.8634 0
M  V30 90 Ba 4.4074 4.3534 0.0976 0
M  V30 91 Ba 4.0934 -0.5653 3.7637 0
M  V30 92 Ga 2.9543 -0.1826 4.6101 0
M  V30 93 Ba 1.7685 0.1714 5.4032 0
M  V30 94 Ba -2.6452 1.3364 -0.1537 0
M  V30 95 Ga -3.1050 -0.0575 -0.3341 0
M  V30 96 Ba -3.5725 -1.4212 -0.6638 0
M  V30 97 Ba 2.7706 -2.3685 2.8537 0
M  V30 98 Ga 1.5612 -1.9645 3.6046 0
M  V30 99 Ba 0.3740 -1.5060 4.3595 0
M  V30 END ATOM
M  V30 BEGIN BOND
M  V30 1 1 1 2
M  V30 2 1 1 3
M  V30 3 1 1 4
M  V30 4 1 1 5
M  V30 5 1 6 7
M  V30 6 1 6 8
M  V30 7 1 6 9
M  V30 8 1 6 10
M  V30 9 1 11 12
M  V30 10 1 11 13
M  V30 11 1 11 14
M  V30 12 1 11 15
M  V30 13 1 16 17
M  V30 14 1 16 18
M  V30 15 1 16 19
M  V30 16 1 16 20
M  V30 17 1 21 22
M  V30 18 1 21 23
M  V30 19 1 21 24
M  V30 20 1 21 25
M  V30 21 1 26 27
M  V30 22 1 26 28
M  V30 23 1 26 29
M  V30 24 1 26 30
M  V30 25 1 31 32
M  V30 26 1 31 33
M  V30 27 1 31 34
M  V30 28 1 31 35
M  V30 29 1 36 37
M  V30 30 1 36 38
M  V30 31 1 36 39
M  V30 32 1 36 40
M  V30 33 1 41 42
M  V30 34 1 41 43
M  V30 35 1 41 44
M  V30 36 1 41 45
M  V30 37 1 46 47
M  V30 38 1 47 48
M  V30 39 1 49 50
M  V30 40 1 50 51
M  V30 41 1 52 53
M  V30 42 1 53 54
M  V30 43 1 55 56
M  V30 44 1 56 57
M  V30 45 1 58 59
M  V30 46 1 59 60
M  V30 47 1 61 62
M  V30 48 1 62 63
M  V30 49 1 64 65
M  V30 50 1 65 66
M  V30 51 1 67 68
M  V30 52 1 68 69
M  V30 53 1 70 71
M  V30 54 1 71 72
M  V30 55 1 73 74
M  V30 56 1 74 75
M  V30 57 1 76 77
M  V30 58 1 77 78
M  V30 59 1 79 80
M  V30 60 1 80 81
M  V30 61 1 82 83
M  V30 62 1 83 84
M  V30 63 1 85 86
M  V30 64 1 86 87
M  V30 65 1 88 89
M  V30 66 1 89 90
M  V30 67 1 91 92
M  V30 68 1 92 93
M  V30 69 1 94 95
M  V30 70 1 95 96
M  V30 71 1 97 98
M  V30 72 1 98 99
M  V30 73 1 2 85
M  V30 74 1 3 64
M  V30 75 1 4 94
M  V30 76 1 5 70
M  V30 77 1 7 58
M  V30 78 1 8 79
M  V30 79 1 9 96
M  V30 80 1 10 76
M  V30 81 1 12 52
M  V30 82 1 13 81
M  V30 83 1 14 61
M  V30 84 1 15 60
M  V30 85 1 17 49
M  V30 86 1 18 67
M  V30 87 1 19 73
M  V30 88 1 20 87
M  V30 89 1 22 97
M  V30 90 1 23 82
M  V30 91 1 24 54
M  V30 92 1 25 91
M  V30 93 1 27 75
M  V30 94 1 28 51
M  V30 95 1 29 63
M  V30 96 1 30 78
M  V30 97 1 32 46
M  V30 98 1 33 55
M  V30 99 1 34 88
M  V30 100 1 35 66
M  V30 101 1 37 57
M  V30 102 1 38 93
M  V30 103 1 39 72
M  V30 104 1 40 99
M  V30 105 1 42 69
M  V30 106 1 43 90
M  V30 107 1 44 48
M  V30 108 1 45 84
M  V30 END BOND
M  V30 END CTAB
M  END

$$$$
