
     RDKit          3D

  0  0  0  0  0  0  0  0  0  0999 V3000
M  V30 BEGIN CTAB
M  V30 COUNTS 99 108 0 0 0
M  V30 BEGIN ATOM
M  V30 1 Pd -3.3633 0.3866 5.3488 0
M  V30 2 Pb -3.4545 1.0110 4.5796 0
M  V30 3 Pb -4.0652 -0.2188 4.9774 0
M  V30 4 Pb -2.5772 0.9355 5.6777 0
M  V30 5 Pb -3.2426 -0.2888 6.0773 0
M  V30 6 Pd 1.5217 -3.1130 -1.7318 0
M  V30 7 Pb 1.3014 -3.4269 -2.6555 0
M  V30 8 Pb 0.7021 -3.6669 -1.8821 0
M  V30 9 Pb 2.0232 -3.9598 -1.5468 0
M  V30 10 Pb 2.1199 -2.5995 -1.1152 0
M  V30 11 Pd -3.3569 -6.7124 5.0956 0
M  V30 12 Pb -2.6559 -7.3375 5.4265 0
M  V30 13 Pb -3.3588 -7.2144 4.2167 0
M  V30 14 Pb -4.0187 -6.0486 4.7492 0
M  V30 15 Pb -3.2771 -6.1304 5.9045 0
M  V30 16 Pd 2.6426 6.3968 -1.1971 0
M  V30 17 Pb 3.3504 5.7206 -1.4070 0
M  V30 18 Pb 1.9066 5.7604 -1.4291 0
M  V30 19 Pb 3.3757 7.0307 -0.9660 0
M  V30 20 Pb 2.0197 7.0076 -0.6944 0
M  V30 21 Pd 2.1351 1.9546 4.0711 0
M  V30 22 Pb 2.0591 2.7967 4.6053 0
M  V30 23 Pb 1.3718 2.0439 4.7349 0
M  V30 24 Pb 1.5438 2.3528 3.3767 0
M  V30 25 Pb 2.6009 1.3986 3.3814 0
M  V30 26 Pd -1.8155 3.0620 -6.6147 0
M  V30 27 Pb -2.0713 2.9421 -7.5711 0
M  V30 28 Pb -1.5569 3.1704 -5.6544 0
M  V30 29 Pb -0.8698 2.8576 -6.8917 0
M  V30 30 Pb -2.7852 2.9659 -6.3847 0
M  V30 31 Pd -0.0454 -7.6344 0.4452 0
M  V30 32 Pb -0.4811 -7.0777 -0.2612 0
M  V30 33 Pb 0.3832 -8.1653 1.1707 0
M  V30 34 Pb 0.8472 -7.3851 0.0681 0
M  V30 35 Pb -0.9472 -7.8442 0.8587 0
M  V30 36 Pd -1.2233 -1.1588 -8.6366 0
M  V30 37 Pb -1.5993 -0.4195 -9.1895 0
M  V30 38 Pb -2.1590 -1.4957 -8.5208 0
M  V30 39 Pb -0.8486 -1.8850 -8.0605 0
M  V30 40 Pb -0.3847 -0.6081 -8.5542 0
M  V30 41 Pd 3.7592 7.0821 3.3499 0
M  V30 42 Pb 2.9360 7.5700 3.0366 0
M  V30 43 Pb 4.2628 7.5752 2.6457 0
M  V30 44 Pb 4.5296 6.4443 3.3949 0
M  V30 45 Pb 3.2534 6.5869 4.0567 0
M  V30 46 Ag 2.5585 -2.1926 -0.6614 0
M  V30 47 Fe 2.7649 -0.6169 1.1049 0
M  V30 48 Ag 2.9380 0.9602 2.8736 0
M  V30 49 Ag -3.1770 -0.8630 6.5565 0
M  V30 50 Fe -3.1723 -3.2359 6.6640 0
M  V30 51 Ag -3.2118 -5.5993 6.4299 0
M  V30 52 Ag 1.1307 -3.6410 -3.3537 0
M  V30 53 Fe 0.2864 -3.0594 -5.4956 0
M  V30 54 Ag -0.5665 -2.4203 -7.6177 0
M  V30 55 Ag 1.3557 5.2847 -1.6109 0
M  V30 56 Fe -0.0060 4.2660 -3.2694 0
M  V30 57 Ag -1.3635 3.2518 -4.9339 0
M  V30 58 Ag -3.4465 2.6188 -6.3511 0
M  V30 59 Fe -3.7691 0.4402 -7.2171 0
M  V30 60 Ag -2.8737 -1.4615 -8.3044 0
M  V30 61 Ag -3.3482 1.4632 4.0022 0
M  V30 62 Fe -1.3440 2.3049 3.0905 0
M  V30 63 Ag 0.9903 2.6033 2.9513 0
M  V30 64 Ag 3.9345 5.2781 -1.2586 0
M  V30 65 Fe 4.9405 5.1930 0.8823 0
M  V30 66 Ag 5.0116 5.9391 3.1276 0
M  V30 67 Ag -4.5163 -0.7577 4.7200 0
M  V30 68 Fe -4.6475 -3.1208 4.5443 0
M  V30 69 Ag -4.4653 -5.4871 4.5336 0
M  V30 70 Ag -2.0719 -7.7881 5.5066 0
M  V30 71 Fe -0.4492 -8.4505 3.9288 0
M  V30 72 Ag 0.5726 -8.5029 1.8039 0
M  V30 73 Ba -2.2436 2.7934 -8.2823 0
M  V30 74 Ga -2.0957 1.5200 -8.9991 0
M  V30 75 Ba -1.8761 0.1748 -9.5460 0
M  V30 76 Ba 0.0949 -4.0952 -1.9872 0
M  V30 77 Ga -0.3663 -5.3665 -1.3994 0
M  V30 78 Ba -0.7887 -6.6385 -0.7847 0
M  V30 79 Ba 2.0010 3.4321 4.9999 0
M  V30 80 Ga 2.4398 4.8254 4.7956 0
M  V30 81 Ba 2.8782 6.2189 4.5920 0
M  V30 82 Ba 1.6426 7.4405 -0.1969 0
M  V30 83 Ga 1.9401 7.6973 1.2416 0
M  V30 84 Ba 2.3457 7.8720 2.6659 0
M  V30 85 Ba -1.9853 1.3486 5.9269 0
M  V30 86 Ga -0.5895 1.7020 5.5333 0
M  V30 87 Ba 0.8128 2.1283 5.2506 0
M  V30 88 Ba 3.9143 7.4923 -0.7356 0
M  V30 89 Ga 4.3302 7.7685 0.6443 0
M  V30 90 Ba 4.6054 7.9166 2.0780 0
M  V30 91 Ba 2.3789 -4.6072 -1.4094 0
M  V30 92 Ga 1.9630 -5.8929 -0.8143 0
M  V30 93 Ba 1.5063 -7.1618 -0.2133 0
M  V30 94 Ba -0.2155 2.5718 -7.1493 0
M  V30 95 Ga 0.0397 1.2535 -7.7960 0
M  V30 96 Ba 0.1568 -0.0914 -8.4274 0
M  V30 97 Ba -3.3531 -7.5812 3.5484 0
M  V30 98 Ga -2.4511 -7.7689 2.3755 0
M  V30 99 Ba -1.6274 -8.0207 1.1578 0
M  V30 END ATOM
M  V30 BEGIN BOND
M  V30 1 1 1 2
M  V30 2 1 1 3
M  V30 3 1 1 4
M  V30 4 1 1 5
M  V30 5 1 6 7
M  V30 6 1 6 8
M  V30 7 1 6 9
M  V30 8 1 6 10
M  V30 9 1 11 12
M  V30 10 1 11 13
M  V30 11 1 11 14
M  V30 12 1 11 15
M  V30 13 1 16 17
M  V30 14 1 16 18
M  V30 15 1 16 19
M  V30 16 1 16 20
M  V30 17 1 21 22
M  V30 18 1 21 23
M  V30 19 1 21 24
M  V30 20 1 21 25
M  V30 21 1 26 27
M  V30 22 1 26 28
M  V30 23 1 26 29
M  V30 24 1 26 30
M  V30 25 1 31 32
M  V30 26 1 31 33
M  V30 27 1 31 34
M  V30 28 1 31 35
M  V30 29 1 36 37
M  V30 30 1 36 38
M  V30 31 1 36 39
M  V30 32 1 36 40
M  V30 33 1 41 42
M  V30 34 1 41 43
M  V30 35 1 41 44
M  V30 36 1 41 45
M  V30 37 1 46 47
M  V30 38 1 47 48
M  V30 39 1 49 50
M  V30 40 1 50 51
M  V30 41 1 52 53
M  V30 42 1 53 54
M  V30 43 1 55 56
M  V30 44 1 56 57
M  V30 45 1 58 59
M  V30 46 1 59 60
M  V30 47 1 61 62
M  V30 48 1 62 63
M  V30 49 1 64 65
M  V30 50 1 65 66
M  V30 51 1 67 68
M  V30 52 1 68 69
M  V30 53 1 70 71
M  V30 54 1 71 72
M  V30 55 1 73 74
M  V30 56 1 74 75
M  V30 57 1 76 77
M  V30 58 1 77 78
M  V30 59 1 79 80
M  V30 60 1 80 81
M  V30 61 1 82 83
M  V30 62 1 83 84
M  V30 63 1 85 86
M  V30 64 1 86 87
M  V30 65 1 88 89
M  V30 66 1 89 90
M  V30 67 1 91 92
M  V30 68 1 92 93
M  V30 69 1 94 95
M  V30 70 1 95 96
M  V30 71 1 97 98
M  V30 72 1 98 99
M  V30 73 1 2 61
M  V30 74 1 3 67
M  V30 75 1 4 85
M  V30 76 1 5 49
M  V30 77 1 7 52
M  V30 78 1 8 76
M  V30 79 1 9 91
M  V30 80 1 10 46
M  V30 81 1 12 70
M  V30 82 1 13 97
M  V30 83 1 14 69
M  V30 84 1 15 51
M  V30 85 1 17 64
M  V30 86 1 18 55
M  V30 87 1 19 88
M  V30 88 1 20 82
M  V30 89 1 22 79
M  V30 90 1 23 87
M  V30 91 1 24 63
M  V30 92 1 25 48
M  V30 93 1 27 73
M  V30 94 1 28 57
M  V30 95 1 29 94
M  V30 96 1 30 58
M  V30 97 1 32 78
M  V30 98 1 33 72
M  V30 99 1 34 93
M  V30 100 1 35 99
M  V30 101 1 37 75
M  V30 102 1 38 60
M  V30 103 1 39 54
M  V30 104 1 40 96
M  V30 105 1 42 84
M  V30 106 1 43 90
M  V30 107 1 44 66
M  V30 108 1 45 81
M  V30 END BOND
M  V30 END CTAB
M  END

$$$$
