
     RDKit          3D

  0  0  0  0  0  0  0  0  0  0999 V3000
M  V30 BEGIN CTAB
M  V30 COUNTS 99 108 0 0 0
M  V30 BEGIN ATOM
M  V30 1 Pd -2.3967 -3.7987 1.7823 0
M  V30 2 Pb -2.5754 -3.7305 0.7994 0
M  V30 3 Pb -2.2231 -3.9394 2.7594 0
M  V30 4 Pb -3.0475 -3.0703 2.0006 0
M  V30 5 Pb -1.7081 -4.4869 1.5673 0
M  V30 6 Pd 5.2845 1.2932 5.9392 0
M  V30 7 Pb 5.5772 1.9009 5.2049 0
M  V30 8 Pb 4.4473 1.8123 6.0873 0
M  V30 9 Pb 6.0542 0.6921 5.7465 0
M  V30 10 Pb 4.9344 0.5823 6.5635 0
M  V30 11 Pd -0.8034 1.4679 -7.5839 0
M  V30 12 Pb -1.1400 0.5131 -7.6364 0
M  V30 13 Pb -0.0009 1.1685 -7.0630 0
M  V30 14 Pb -0.5767 2.4271 -7.4295 0
M  V30 15 Pb -1.6050 1.7587 -8.0971 0
M  V30 16 Pd -1.9293 6.0102 -1.9455 0
M  V30 17 Pb -1.6708 6.0634 -2.9092 0
M  V30 18 Pb -2.1745 5.9087 -0.9800 0
M  V30 19 Pb -0.9522 5.9705 -1.7434 0
M  V30 20 Pb -2.9043 6.0093 -2.1684 0
M  V30 21 Pd 4.3925 1.5582 -1.5589 0
M  V30 22 Pb 4.8414 1.8925 -0.7293 0
M  V30 23 Pb 3.9621 1.2487 -2.4102 0
M  V30 24 Pb 3.9533 2.4546 -1.6151 0
M  V30 25 Pb 4.8093 0.6509 -1.4597 0
M  V30 26 Pd -5.6171 3.0274 0.0843 0
M  V30 27 Pb -4.9863 3.6319 0.5730 0
M  V30 28 Pb -6.2081 2.4054 -0.4281 0
M  V30 29 Pb -5.5070 2.3043 0.7663 0
M  V30 30 Pb -5.7092 3.7325 -0.6195 0
M  V30 31 Pd -5.0569 -1.6988 -5.4903 0
M  V30 32 Pb -4.5795 -2.2416 -4.7990 0
M  V30 33 Pb -5.7877 -1.4920 -4.8431 0
M  V30 34 Pb -5.5148 -1.1451 -6.1789 0
M  V30 35 Pb -4.2606 -1.7887 -6.1125 0
M  V30 36 Pd 4.9007 -4.8830 2.5790 0
M  V30 37 Pb 5.1940 -4.4544 1.7218 0
M  V30 38 Pb 4.5531 -5.2365 3.4512 0
M  V30 39 Pb 5.6515 -4.4169 3.0407 0
M  V30 40 Pb 4.1286 -5.3217 2.1264 0
M  V30 41 Pd 1.3111 -2.9693 6.1977 0
M  V30 42 Pb 0.8270 -2.1036 6.2974 0
M  V30 43 Pb 0.4705 -3.4074 5.8697 0
M  V30 44 Pb 1.8341 -3.8200 6.0844 0
M  V30 45 Pb 2.1209 -2.5207 6.6098 0
M  V30 46 Ag 5.7733 2.2706 4.5856 0
M  V30 47 Fe 5.5017 2.2843 2.2271 0
M  V30 48 Ag 5.1593 2.1967 -0.1208 0
M  V30 49 Ag -2.6679 -3.7704 0.0546 0
M  V30 50 Fe -3.4833 -3.1364 -2.0850 0
M  V30 51 Ag -4.2016 -2.6520 -4.2975 0
M  V30 52 Ag 5.0966 -0.0420 -1.3885 0
M  V30 53 Fe 5.2710 -2.0742 -0.1649 0
M  V30 54 Ag 5.4059 -4.0817 1.1035 0
M  V30 55 Ag -0.2097 5.9188 -1.6600 0
M  V30 56 Fe 1.7188 4.5342 -1.6197 0
M  V30 57 Ag 3.6356 3.1333 -1.5848 0
M  V30 58 Ag -2.2760 1.8701 -8.3914 0
M  V30 59 Fe -4.3375 0.8445 -7.8966 0
M  V30 60 Ag -5.7009 -0.6692 -6.7153 0
M  V30 61 Ag 3.7389 2.0093 6.1900 0
M  V30 62 Fe 1.8276 0.6316 6.3401 0
M  V30 63 Ag 0.6139 -1.3939 6.3640 0
M  V30 64 Ag -0.5022 3.1485 -7.2472 0
M  V30 65 Fe -0.9168 4.6970 -5.4974 0
M  V30 66 Ag -1.4192 6.0519 -3.6149 0
M  V30 67 Ag 6.5401 0.1559 5.5699 0
M  V30 68 Fe 6.5563 -1.9575 4.4996 0
M  V30 69 Ag 6.1793 -4.0089 3.3758 0
M  V30 70 Ag -3.5052 -2.5063 2.1915 0
M  V30 71 Fe -4.4784 -0.3890 1.7291 0
M  V30 72 Ag -5.4389 1.7288 1.2427 0
M  V30 73 Ag -1.1564 -4.9614 1.3993 0
M  V30 74 Fe 1.1707 -5.3848 1.5612 0
M  V30 75 Ag 3.5137 -5.6260 1.8318 0
M  V30 76 Ag -6.6055 1.9004 -0.8134 0
M  V30 77 Fe -6.5652 0.2933 -2.5593 0
M  V30 78 Ag -6.2865 -1.2480 -4.3421 0
M  V30 79 Ag 0.5995 0.9225 -6.6820 0
M  V30 80 Fe 2.1079 1.0040 -4.8455 0
M  V30 81 Ag 3.6751 0.9923 -3.0572 0
M  V30 82 Ba -2.3872 5.8049 -0.2669 0
M  V30 83 Ga -3.4327 4.9622 0.3478 0
M  V30 84 Ba -4.4953 4.0974 0.8992 0
M  V30 85 Ba 4.6892 0.0113 6.9997 0
M  V30 86 Ga 3.6694 -1.0723 6.9409 0
M  V30 87 Ba 2.6927 -2.1949 6.9959 0
M  V30 88 Ba -1.4146 -0.1995 -7.6664 0
M  V30 89 Ga -2.5492 -0.9876 -7.0983 0
M  V30 90 Ba -3.6540 -1.8456 -6.5745 0
M  V30 91 Ba -3.6406 5.9777 -2.3079 0
M  V30 92 Ga -4.7168 5.1385 -1.7472 0
M  V30 93 Ba -5.7441 4.2676 -1.1445 0
M  V30 94 Ba 4.2533 -5.4874 4.0955 0
M  V30 95 Ga 3.2507 -4.9622 5.0506 0
M  V30 96 Ba 2.2489 -4.4467 6.0119 0
M  V30 97 Ba -2.1157 -4.0993 3.4866 0
M  V30 98 Ga -1.1134 -3.8805 4.5510 0
M  V30 99 Ba -0.1870 -3.7290 5.6930 0
M  V30 END ATOM
M  V30 BEGIN BOND
M  V30 1 1 1 2
M  V30 2 1 1 3
M  V30 3 1 1 4
M  V30 4 1 1 5
M  V30 5 1 6 7
M  V30 6 1 6 8
M  V30 7 1 6 9
M  V30 8 1 6 10
M  V30 9 1 11 12
M  V30 10 1 11 13
M  V30 11 1 11 14
M  V30 12 1 11 15
M  V30 13 1 16 17
M  V30 14 1 16 18
M  V30 15 1 16 19
M  V30 16 1 16 20
M  V30 17 1 21 22
M  V30 18 1 21 23
M  V30 19 1 21 24
M  V30 20 1 21 25
M  V30 21 1 26 27
M  V30 22 1 26 28
M  V30 23 1 26 29
M  V30 24 1 26 30
M  V30 25 1 31 32
M  V30 26 1 31 33
M  V30 27 1 31 34
M  V30 28 1 31 35
M  V30 29 1 36 37
M  V30 30 1 36 38
M  V30 31 1 36 39
M  V30 32 1 36 40
M  V30 33 1 41 42
M  V30 34 1 41 43
M  V30 35 1 41 44
M  V30 36 1 41 45
M  V30 37 1 46 47
M  V30 38 1 47 48
M  V30 39 1 49 50
M  V30 40 1 50 51
M  V30 41 1 52 53
M  V30 42 1 53 54
M  V30 43 1 55 56
M  V30 44 1 56 57
M  V30 45 1 58 59
M  V30 46 1 59 60
M  V30 47 1 61 62
M  V30 48 1 62 63
M  V30 49 1 64 65
M  V30 50 1 65 66
M  V30 51 1 67 68
M  V30 52 1 68 69
M  V30 53 1 70 71
M  V30 54 1 71 72
M  V30 55 1 73 74
M  V30 56 1 74 75
M  V30 57 1 76 77
M  V30 58 1 77 78
M  V30 59 1 79 80
M  V30 60 1 80 81
M  V30 61 1 82 83
M  V30 62 1 83 84
M  V30 63 1 85 86
M  V30 64 1 86 87
M  V30 65 1 88 89
M  V30 66 1 89 90
M  V30 67 1 91 92
M  V30 68 1 92 93
M  V30 69 1 94 95
M  V30 70 1 95 96
M  V30 71 1 97 98
M  V30 72 1 98 99
M  V30 73 1 2 49
M  V30 74 1 3 97
M  V30 75 1 4 70
M  V30 76 1 5 73
M  V30 77 1 7 46
M  V30 78 1 8 61
M  V30 79 1 9 67
M  V30 80 1 10 85
M  V30 81 1 12 88
M  V30 82 1 13 79
M  V30 83 1 14 64
M  V30 84 1 15 58
M  V30 85 1 17 66
M  V30 86 1 18 82
M  V30 87 1 19 55
M  V30 88 1 20 91
M  V30 89 1 22 48
M  V30 90 1 23 81
M  V30 91 1 24 57
M  V30 92 1 25 52
M  V30 93 1 27 84
M  V30 94 1 28 76
M  V30 95 1 29 72
M  V30 96 1 30 93
M  V30 97 1 32 51
M  V30 98 1 33 78
M  V30 99 1 34 60
M  V30 100 1 35 90
M  V30 101 1 37 54
M  V30 102 1 38 94
M  V30 103 1 39 69
M  V30 104 1 40 75
M  V30 105 1 42 63
M  V30 106 1 43 99
M  V30 107 1 44 96
M  V30 108 1 45 87
M  V30 END BOND
M  V30 END CTAB
M  END

$$$$
