
     RDKit          3D

  0  0  0  0  0  0  0  0  0  0999 V3000
M  V30 BEGIN CTAB
M  V30 COUNTS 99 108 0 0 0
M  V30 BEGIN ATOM
M  V30 1 Pd -3.9906 -0.7324 -1.2271 0
M  V30 2 Pb -3.9782 -0.0922 -1.9972 0
M  V30 3 Pb -3.1618 -1.1658 -1.5856 0
M  V30 4 Pb -4.7781 -0.2629 -0.8309 0
M  V30 5 Pb -3.9677 -1.3095 -0.4103 0
M  V30 6 Pd 3.2049 -7.1175 -2.8998 0
M  V30 7 Pb 3.6370 -6.3420 -2.4345 0
M  V30 8 Pb 2.7997 -7.8946 -3.3742 0
M  V30 9 Pb 3.2829 -7.6691 -2.0715 0
M  V30 10 Pb 2.9114 -6.5219 -3.6655 0
M  V30 11 Pd 3.3515 5.6481 -0.8182 0
M  V30 12 Pb 3.0528 5.3962 -1.7387 0
M  V30 13 Pb 3.9473 4.8499 -0.7786 0
M  V30 14 Pb 3.6632 5.8663 0.1093 0
M  V30 15 Pb 2.7391 6.4401 -0.8605 0
M  V30 16 Pd 2.0483 3.9532 4.1567 0
M  V30 17 Pb 2.8227 4.4689 3.7861 0
M  V30 18 Pb 1.2252 3.4948 4.5018 0
M  V30 19 Pb 2.6190 3.1538 4.3671 0
M  V30 20 Pb 1.4743 4.7564 4.0172 0
M  V30 21 Pd 4.2314 -1.1941 2.4218 0
M  V30 22 Pb 4.3776 -1.8457 1.6735 0
M  V30 23 Pb 4.6347 -0.4906 1.8411 0
M  V30 24 Pb 4.1392 -0.5330 3.1713 0
M  V30 25 Pb 3.8159 -1.9023 2.9937 0
M  V30 26 Pd -4.9427 5.0989 2.9755 0
M  V30 27 Pb -4.5126 4.4674 3.6237 0
M  V30 28 Pb -5.2252 5.6905 2.2248 0
M  V30 29 Pb -5.5772 4.3961 2.6608 0
M  V30 30 Pb -4.2258 5.7516 3.2022 0
M  V30 31 Pd -1.3217 6.0476 -3.0979 0
M  V30 32 Pb -1.8440 5.2877 -3.4887 0
M  V30 33 Pb -2.1638 6.4089 -2.6979 0
M  V30 34 Pb -0.7839 6.7595 -2.6417 0
M  V30 35 Pb -0.4741 5.6779 -3.4756 0
M  V30 36 Pd -1.0681 -6.5205 2.6931 0
M  V30 37 Pb -0.3874 -6.1268 3.3088 0
M  V30 38 Pb -1.7295 -6.8131 2.0029 0
M  V30 39 Pb -0.3933 -7.2109 2.4292 0
M  V30 40 Pb -1.7025 -5.7725 2.8713 0
M  V30 41 Pd -1.6632 -5.1661 -4.2307 0
M  V30 42 Pb -1.7718 -6.0399 -4.6977 0
M  V30 43 Pb -1.5137 -4.3083 -3.7353 0
M  V30 44 Pb -2.4101 -5.4244 -3.6219 0
M  V30 45 Pb -0.7651 -5.0466 -4.6829 0
M  V30 46 Ag 3.9923 -5.7698 -2.0996 0
M  V30 47 Fe 4.1881 -4.0523 -0.4668 0
M  V30 48 Ag 4.5473 -2.2936 1.0925 0
M  V30 49 Ag -3.9348 0.4189 -2.5465 0
M  V30 50 Fe -3.1148 2.5499 -3.2067 0
M  V30 51 Ag -2.2359 4.6947 -3.7330 0
M  V30 52 Ag 3.4889 -2.4272 3.4191 0
M  V30 53 Fe 1.8406 -4.1231 3.6334 0
M  V30 54 Ag 0.1517 -5.7908 3.7052 0
M  V30 55 Ag 0.5559 3.2338 4.7297 0
M  V30 56 Fe -1.7932 3.5202 4.4839 0
M  V30 57 Ag -4.0774 4.0190 4.0433 0
M  V30 58 Ag 2.3830 -8.3725 -3.7596 0
M  V30 59 Fe 0.2222 -8.0788 -4.6456 0
M  V30 60 Ag -1.6782 -6.7270 -4.9588 0
M  V30 61 Ag 0.9967 5.3276 3.9578 0
M  V30 62 Fe -1.2813 5.9072 3.6559 0
M  V30 63 Ag -3.6147 6.1592 3.3279 0
M  V30 64 Ag 3.1891 -8.0365 -1.4263 0
M  V30 65 Fe 1.7558 -7.9889 0.4663 0
M  V30 66 Ag 0.1654 -7.6563 2.1982 0
M  V30 67 Ag -5.3243 0.1090 -0.4790 0
M  V30 68 Fe -5.7955 1.9504 0.9411 0
M  V30 69 Ag -5.9822 3.8493 2.3511 0
M  V30 70 Ag -3.9498 -1.6931 0.2346 0
M  V30 71 Fe -3.0993 -3.4313 1.6096 0
M  V30 72 Ag -2.1858 -5.2034 2.8981 0
M  V30 73 Ag -2.2395 -6.8946 1.4586 0
M  V30 74 Fe -2.7077 -6.3723 -0.8098 0
M  V30 75 Ag -2.8440 -5.7194 -3.0884 0
M  V30 76 Ag -5.3094 6.0941 1.6023 0
M  V30 77 Fe -4.1674 6.4813 -0.4407 0
M  V30 78 Ag -2.7927 6.6480 -2.3675 0
M  V30 79 Ag 4.3853 4.2495 -0.7061 0
M  V30 80 Fe 4.6965 2.1323 0.3159 0
M  V30 81 Ag 4.9209 0.0268 1.3838 0
M  V30 82 Ba 3.0391 2.5691 4.5922 0
M  V30 83 Ga 3.5471 1.2650 4.1111 0
M  V30 84 Ba 4.1147 -0.0539 3.7525 0
M  V30 85 Ba 2.2628 7.0180 -0.9321 0
M  V30 86 Ga 0.9499 7.1644 -1.5955 0
M  V30 87 Ba -0.3606 7.2601 -2.2728 0
M  V30 88 Ba 2.6286 -6.0783 -4.2203 0
M  V30 89 Ga 1.2822 -5.5424 -4.5875 0
M  V30 90 Ba -0.0577 -4.9990 -4.9676 0
M  V30 91 Ba 2.8141 5.2076 -2.4241 0
M  V30 92 Ga 1.5078 5.2980 -3.1009 0
M  V30 93 Ba 0.1789 5.4125 -3.7284 0
M  V30 94 Ba 3.9438 5.9709 0.8000 0
M  V30 95 Ga 3.6495 5.4428 2.1493 0
M  V30 96 Ba 3.3552 4.9156 3.4990 0
M  V30 97 Ba -2.5094 -1.4415 -1.8372 0
M  V30 98 Ga -1.9847 -2.5846 -2.6114 0
M  V30 99 Ba -1.3386 -3.6756 -3.3690 0
M  V30 END ATOM
M  V30 BEGIN BOND
M  V30 1 1 1 2
M  V30 2 1 1 3
M  V30 3 1 1 4
M  V30 4 1 1 5
M  V30 5 1 6 7
M  V30 6 1 6 8
M  V30 7 1 6 9
M  V30 8 1 6 10
M  V30 9 1 11 12
M  V30 10 1 11 13
M  V30 11 1 11 14
M  V30 12 1 11 15
M  V30 13 1 16 17
M  V30 14 1 16 18
M  V30 15 1 16 19
M  V30 16 1 16 20
M  V30 17 1 21 22
M  V30 18 1 21 23
M  V30 19 1 21 24
M  V30 20 1 21 25
M  V30 21 1 26 27
M  V30 22 1 26 28
M  V30 23 1 26 29
M  V30 24 1 26 30
M  V30 25 1 31 32
M  V30 26 1 31 33
M  V30 27 1 31 34
M  V30 28 1 31 35
M  V30 29 1 36 37
M  V30 30 1 36 38
M  V30 31 1 36 39
M  V30 32 1 36 40
M  V30 33 1 41 42
M  V30 34 1 41 43
M  V30 35 1 41 44
M  V30 36 1 41 45
M  V30 37 1 46 47
M  V30 38 1 47 48
M  V30 39 1 49 50
M  V30 40 1 50 51
M  V30 41 1 52 53
M  V30 42 1 53 54
M  V30 43 1 55 56
M  V30 44 1 56 57
M  V30 45 1 58 59
M  V30 46 1 59 60
M  V30 47 1 61 62
M  V30 48 1 62 63
M  V30 49 1 64 65
M  V30 50 1 65 66
M  V30 51 1 67 68
M  V30 52 1 68 69
M  V30 53 1 70 71
M  V30 54 1 71 72
M  V30 55 1 73 74
M  V30 56 1 74 75
M  V30 57 1 76 77
M  V30 58 1 77 78
M  V30 59 1 79 80
M  V30 60 1 80 81
M  V30 61 1 82 83
M  V30 62 1 83 84
M  V30 63 1 85 86
M  V30 64 1 86 87
M  V30 65 1 88 89
M  V30 66 1 89 90
M  V30 67 1 91 92
M  V30 68 1 92 93
M  V30 69 1 94 95
M  V30 70 1 95 96
M  V30 71 1 97 98
M  V30 72 1 98 99
M  V30 73 1 2 49
M  V30 74 1 3 97
M  V30 75 1 4 67
M  V30 76 1 5 70
M  V30 77 1 7 46
M  V30 78 1 8 58
M  V30 79 1 9 64
M  V30 80 1 10 88
M  V30 81 1 12 91
M  V30 82 1 13 79
M  V30 83 1 14 94
M  V30 84 1 15 85
M  V30 85 1 17 96
M  V30 86 1 18 55
M  V30 87 1 19 82
M  V30 88 1 20 61
M  V30 89 1 22 48
M  V30 90 1 23 81
M  V30 91 1 24 84
M  V30 92 1 25 52
M  V30 93 1 27 57
M  V30 94 1 28 76
M  V30 95 1 29 69
M  V30 96 1 30 63
M  V30 97 1 32 51
M  V30 98 1 33 78
M  V30 99 1 34 87
M  V30 100 1 35 93
M  V30 101 1 37 54
M  V30 102 1 38 73
M  V30 103 1 39 66
M  V30 104 1 40 72
M  V30 105 1 42 60
M  V30 106 1 43 99
M  V30 107 1 44 75
M  V30 108 1 45 90
M  V30 END BOND
M  V30 END CTAB
M  END

$$$$
