
     RDKit          3D

  0  0  0  0  0  0  0  0  0  0999 V3000
M  V30 BEGIN CTAB
M  V30 COUNTS 99 108 0 0 0
M  V30 BEGIN ATOM
M  V30 1 Pd -4.2626 1.8761 -3.1014 0
M  V30 2 Pb -3.7975 2.3269 -3.8633 0
M  V30 3 Pb -4.3189 2.7494 -2.6177 0
M  V30 4 Pb -4.2647 1.0062 -3.5948 0
M  V30 5 Pb -4.6259 1.4053 -2.2990 0
M  V30 6 Pd 0.1890 4.4559 6.7214 0
M  V30 7 Pb 0.9782 3.8985 6.4843 0
M  V30 8 Pb -0.6517 4.9909 6.8545 0
M  V30 9 Pb -0.2791 3.6368 7.0540 0
M  V30 10 Pb 0.6125 5.2680 6.3262 0
M  V30 11 Pd 5.5994 -1.8508 -1.2505 0
M  V30 12 Pb 5.3698 -0.8840 -1.3977 0
M  V30 13 Pb 5.5538 -1.7785 -0.2546 0
M  V30 14 Pb 5.7663 -2.8295 -1.1443 0
M  V30 15 Pb 5.6689 -1.9261 -2.2412 0
M  V30 16 Pd 2.1505 -5.8694 -1.3286 0
M  V30 17 Pb 3.1400 -5.8057 -1.1913 0
M  V30 18 Pb 2.2888 -5.9928 -2.3131 0
M  V30 19 Pb 1.9961 -5.7615 -0.3445 0
M  V30 20 Pb 1.1651 -5.9607 -1.4726 0
M  V30 21 Pd 1.9817 -2.1310 3.1698 0
M  V30 22 Pb 2.1533 -1.2499 3.6054 0
M  V30 23 Pb 2.9441 -2.1087 2.8970 0
M  V30 24 Pb 1.8614 -3.0616 2.8138 0
M  V30 25 Pb 1.0262 -2.1461 3.4825 0
M  V30 26 Pd -0.8942 -4.6774 -5.4516 0
M  V30 27 Pb -0.0099 -5.1449 -5.4339 0
M  V30 28 Pb -0.6500 -4.1916 -6.2902 0
M  V30 29 Pb -1.7480 -4.1602 -5.4319 0
M  V30 30 Pb -1.1292 -5.1178 -4.5860 0
M  V30 31 Pd 2.2850 1.4933 -6.6573 0
M  V30 32 Pb 1.4728 2.0761 -6.6195 0
M  V30 33 Pb 1.8596 0.9387 -7.3680 0
M  V30 34 Pb 3.0499 0.8560 -6.6506 0
M  V30 35 Pb 2.6864 1.9058 -5.8361 0
M  V30 36 Pd -3.1360 0.6910 4.4104 0
M  V30 37 Pb -2.5641 -0.1351 4.3569 0
M  V30 38 Pb -3.7826 1.4577 4.4726 0
M  V30 39 Pb -2.7206 0.9185 5.2954 0
M  V30 40 Pb -3.5924 0.4478 3.5541 0
M  V30 41 Pd -3.8958 6.1726 3.3983 0
M  V30 42 Pb -3.6427 6.2370 4.3716 0
M  V30 43 Pb -4.1116 6.0917 2.4258 0
M  V30 44 Pb -4.4838 5.3983 3.6320 0
M  V30 45 Pb -3.2347 6.8935 3.2034 0
M  V30 46 Ag 1.5186 3.4437 6.2477 0
M  V30 47 Fe 1.9583 1.4119 5.1068 0
M  V30 48 Ag 2.3610 -0.6234 3.9583 0
M  V30 49 Ag -3.3837 2.6507 -4.3988 0
M  V30 50 Fe -1.3011 2.6252 -5.5408 0
M  V30 51 Ag 0.8276 2.4574 -6.5816 0
M  V30 52 Ag 5.6955 -1.9098 -2.9862 0
M  V30 53 Fe 4.7435 -0.8634 -4.8863 0
M  V30 54 Ag 3.5925 0.3530 -6.5617 0
M  V30 55 Ag 0.7573 5.8866 5.9400 0
M  V30 56 Fe -0.6272 7.0273 4.4075 0
M  V30 57 Ag -2.6277 7.3219 3.1921 0
M  V30 58 Ag 5.1677 -0.1859 -1.6025 0
M  V30 59 Fe 4.1090 1.0763 -3.3214 0
M  V30 60 Ag 3.0109 2.0821 -5.1790 0
M  V30 61 Ag -4.3046 0.3486 -3.9538 0
M  V30 62 Fe -3.3443 -1.6951 -4.6876 0
M  V30 63 Ag -2.3612 -3.7315 -5.4113 0
M  V30 64 Ag -4.8329 1.0366 -1.6809 0
M  V30 65 Fe -4.4278 0.6466 0.6262 0
M  V30 66 Ag -3.9806 0.2915 2.9312 0
M  V30 67 Ag -4.3947 3.4053 -2.2623 0
M  V30 68 Fe -4.3175 4.7139 -0.2823 0
M  V30 69 Ag -4.2437 6.0336 1.6904 0
M  V30 70 Ag -0.4765 -3.7638 -6.8802 0
M  V30 71 Fe 0.4992 -1.6992 -7.5238 0
M  V30 72 Ag 1.5392 0.4155 -7.7937 0
M  V30 73 Ba 0.3164 -2.2205 3.7288 0
M  V30 74 Ga -0.9060 -1.4322 4.0109 0
M  V30 75 Ba -2.2039 -0.7995 4.3425 0
M  V30 76 Ba 1.8606 -5.7161 0.3935 0
M  V30 77 Ga 1.8303 -4.6999 1.4669 0
M  V30 78 Ba 1.7644 -3.7849 2.6260 0
M  V30 79 Ba 2.3707 -6.0945 -3.0534 0
M  V30 80 Ga 1.5306 -5.7939 -4.2301 0
M  V30 81 Ba 0.6613 -5.4763 -5.3807 0
M  V30 82 Ba -1.2902 5.3897 6.9212 0
M  V30 83 Ga -2.3651 5.8305 5.9977 0
M  V30 84 Ba -3.4583 6.2891 5.1047 0
M  V30 85 Ba 0.4304 -6.0426 -1.5999 0
M  V30 86 Ga -0.4436 -5.7434 -2.7491 0
M  V30 87 Ba -1.2811 -5.4277 -3.9209 0
M  V30 88 Ba 5.8488 -3.5689 -1.0619 0
M  V30 89 Ga 4.8796 -4.6802 -1.0757 0
M  V30 90 Ba 3.8838 -5.7677 -1.0951 0
M  V30 91 Ba -0.6446 3.0209 7.2784 0
M  V30 92 Ga -1.5327 2.0452 6.6122 0
M  V30 93 Ba -2.4238 1.0532 5.9750 0
M  V30 94 Ba -4.3362 1.9714 4.4861 0
M  V30 95 Ga -4.5812 3.3940 4.1645 0
M  V30 96 Ba -4.8874 4.8091 3.8623 0
M  V30 97 Ba 5.5579 -1.7743 0.4950 0
M  V30 98 Ga 4.5825 -1.9085 1.5939 0
M  V30 99 Ba 3.6773 -2.0362 2.7520 0
M  V30 END ATOM
M  V30 BEGIN BOND
M  V30 1 1 1 2
M  V30 2 1 1 3
M  V30 3 1 1 4
M  V30 4 1 1 5
M  V30 5 1 6 7
M  V30 6 1 6 8
M  V30 7 1 6 9
M  V30 8 1 6 10
M  V30 9 1 11 12
M  V30 10 1 11 13
M  V30 11 1 11 14
M  V30 12 1 11 15
M  V30 13 1 16 17
M  V30 14 1 16 18
M  V30 15 1 16 19
M  V30 16 1 16 20
M  V30 17 1 21 22
M  V30 18 1 21 23
M  V30 19 1 21 24
M  V30 20 1 21 25
M  V30 21 1 26 27
M  V30 22 1 26 28
M  V30 23 1 26 29
M  V30 24 1 26 30
M  V30 25 1 31 32
M  V30 26 1 31 33
M  V30 27 1 31 34
M  V30 28 1 31 35
M  V30 29 1 36 37
M  V30 30 1 36 38
M  V30 31 1 36 39
M  V30 32 1 36 40
M  V30 33 1 41 42
M  V30 34 1 41 43
M  V30 35 1 41 44
M  V30 36 1 41 45
M  V30 37 1 46 47
M  V30 38 1 47 48
M  V30 39 1 49 50
M  V30 40 1 50 51
M  V30 41 1 52 53
M  V30 42 1 53 54
M  V30 43 1 55 56
M  V30 44 1 56 57
M  V30 45 1 58 59
M  V30 46 1 59 60
M  V30 47 1 61 62
M  V30 48 1 62 63
M  V30 49 1 64 65
M  V30 50 1 65 66
M  V30 51 1 67 68
M  V30 52 1 68 69
M  V30 53 1 70 71
M  V30 54 1 71 72
M  V30 55 1 73 74
M  V30 56 1 74 75
M  V30 57 1 76 77
M  V30 58 1 77 78
M  V30 59 1 79 80
M  V30 60 1 80 81
M  V30 61 1 82 83
M  V30 62 1 83 84
M  V30 63 1 85 86
M  V30 64 1 86 87
M  V30 65 1 88 89
M  V30 66 1 89 90
M  V30 67 1 91 92
M  V30 68 1 92 93
M  V30 69 1 94 95
M  V30 70 1 95 96
M  V30 71 1 97 98
M  V30 72 1 98 99
M  V30 73 1 2 49
M  V30 74 1 3 67
M  V30 75 1 4 61
M  V30 76 1 5 64
M  V30 77 1 7 46
M  V30 78 1 8 82
M  V30 79 1 9 91
M  V30 80 1 10 55
M  V30 81 1 12 58
M  V30 82 1 13 97
M  V30 83 1 14 88
M  V30 84 1 15 52
M  V30 85 1 17 90
M  V30 86 1 18 79
M  V30 87 1 19 76
M  V30 88 1 20 85
M  V30 89 1 22 48
M  V30 90 1 23 99
M  V30 91 1 24 78
M  V30 92 1 25 73
M  V30 93 1 27 81
M  V30 94 1 28 70
M  V30 95 1 29 63
M  V30 96 1 30 87
M  V30 97 1 32 51
M  V30 98 1 33 72
M  V30 99 1 34 54
M  V30 100 1 35 60
M  V30 101 1 37 75
M  V30 102 1 38 94
M  V30 103 1 39 93
M  V30 104 1 40 66
M  V30 105 1 42 84
M  V30 106 1 43 69
M  V30 107 1 44 96
M  V30 108 1 45 57
M  V30 END BOND
M  V30 END CTAB
M  END

$$$$
