
     RDKit          3D

  0  0  0  0  0  0  0  0  0  0999 V3000
M  V30 BEGIN CTAB
M  V30 COUNTS 99 108 0 0 0
M  V30 BEGIN ATOM
M  V30 1 Pd -0.1515 1.2274 4.0411 0
M  V30 2 Pb -1.1317 1.1282 4.2268 0
M  V30 3 Pb -0.0012 0.3553 4.4968 0
M  V30 4 Pb -0.2998 2.1335 3.6363 0
M  V30 5 Pb 0.8188 1.2019 3.7992 0
M  V30 6 Pd 1.9180 5.6132 0.7608 0
M  V30 7 Pb 2.2892 4.6913 0.6328 0
M  V30 8 Pb 2.6018 5.9523 0.1242 0
M  V30 9 Pb 1.1815 5.2813 1.3551 0
M  V30 10 Pb 1.5235 6.5314 0.7230 0
M  V30 11 Pd 1.7866 3.8712 -3.6321 0
M  V30 12 Pb 1.2945 3.0620 -3.9455 0
M  V30 13 Pb 2.3482 4.6551 -3.3815 0
M  V30 14 Pb 1.1840 4.4514 -4.1768 0
M  V30 15 Pb 2.2769 3.3344 -2.9420 0
M  V30 16 Pd -4.5022 1.9267 1.1728 0
M  V30 17 Pb -4.4924 2.5081 0.3295 0
M  V30 18 Pb -4.5691 1.0862 0.6285 0
M  V30 19 Pb -4.5282 2.7361 1.7413 0
M  V30 20 Pb -4.4209 1.4150 2.0263 0
M  V30 21 Pd 2.2768 -3.6625 -4.2373 0
M  V30 22 Pb 3.0209 -3.0685 -3.9391 0
M  V30 23 Pb 1.4910 -4.2350 -4.4544 0
M  V30 24 Pb 1.7604 -2.8658 -4.5437 0
M  V30 25 Pb 2.7638 -4.4404 -3.8394 0
M  V30 26 Pd -2.2000 6.6832 -1.6561 0
M  V30 27 Pb -2.5698 6.9330 -0.7730 0
M  V30 28 Pb -2.8535 5.8981 -1.7137 0
M  V30 29 Pb -1.8281 6.4935 -2.5709 0
M  V30 30 Pb -1.5193 7.3901 -1.4727 0
M  V30 31 Pd 0.0816 -6.2854 3.3159 0
M  V30 32 Pb -0.9037 -6.1621 3.4375 0
M  V30 33 Pb 1.0730 -6.3573 3.1877 0
M  V30 34 Pb -0.1144 -6.9770 2.6210 0
M  V30 35 Pb 0.2403 -5.5737 3.9918 0
M  V30 36 Pd 4.2179 -3.7038 0.4398 0
M  V30 37 Pb 4.0414 -4.3635 1.1765 0
M  V30 38 Pb 4.2301 -4.4600 -0.2172 0
M  V30 39 Pb 4.1869 -2.9115 1.0560 0
M  V30 40 Pb 4.4308 -3.0798 -0.3122 0
M  V30 41 Pd -3.4029 -5.7397 -0.2850 0
M  V30 42 Pb -3.8491 -4.8619 -0.4748 0
M  V30 43 Pb -2.8801 -6.5717 -0.0936 0
M  V30 44 Pb -3.6075 -5.6697 0.6893 0
M  V30 45 Pb -3.1461 -5.8206 -1.2450 0
M  V30 46 Ag 0.1278 -0.2931 4.8409 0
M  V30 47 Fe 0.2496 -2.6556 4.7228 0
M  V30 48 Ag 0.3335 -5.0087 4.4668 0
M  V30 49 Ag -4.6809 0.4575 0.2280 0
M  V30 50 Fe -4.3926 -1.8682 -0.1803 0
M  V30 51 Ag -4.1410 -4.1882 -0.6415 0
M  V30 52 Ag 0.9760 2.4435 -4.2194 0
M  V30 53 Fe 1.1141 0.0918 -4.4986 0
M  V30 54 Ag 1.3589 -2.2580 -4.7124 0
M  V30 55 Ag 1.5317 1.0457 3.6215 0
M  V30 56 Fe 2.9057 -0.5743 2.5509 0
M  V30 57 Ag 4.1617 -2.2705 1.4534 0
M  V30 58 Ag -4.5274 3.3862 2.0866 0
M  V30 59 Fe -3.8064 5.5198 1.4264 0
M  V30 60 Ag -2.8491 7.0254 -0.0982 0
M  V30 61 Ag 0.8596 -4.6227 -4.5412 0
M  V30 62 Fe -1.0754 -5.3242 -3.3661 0
M  V30 63 Ag -2.8874 -5.8804 -1.9430 0
M  V30 64 Ba -1.6417 -6.0442 3.5040 0
M  V30 65 Ga -2.7065 -5.8425 2.5052 0
M  V30 66 Ba -3.6983 -5.6531 1.4317 0
M  V30 67 Ba -4.4955 2.9334 -0.3172 0
M  V30 68 Ga -3.8742 4.1368 -0.9699 0
M  V30 69 Ba -3.3501 5.3069 -1.7550 0
M  V30 70 Ba 1.2536 7.2130 0.5599 0
M  V30 71 Ga 0.1297 7.6129 -0.3094 0
M  V30 72 Ba -1.0233 7.8769 -1.1922 0
M  V30 73 Ba 1.8233 -6.3723 3.1319 0
M  V30 74 Ga 2.8624 -5.6195 2.3947 0
M  V30 75 Ba 3.9526 -4.9071 1.6923 0
M  V30 76 Ba 3.0440 6.1971 -0.4206 0
M  V30 77 Ga 2.9979 5.7643 -1.8199 0
M  V30 78 Ba 2.8027 5.2039 -3.1601 0
M  V30 79 Ba 2.5733 4.0270 0.4213 0
M  V30 80 Ga 2.6195 3.4418 -0.9375 0
M  V30 81 Ba 2.5864 2.9916 -2.3471 0
M  V30 82 Ba -1.8576 0.9655 4.3444 0
M  V30 83 Ga -3.0951 1.0322 3.5408 0
M  V30 84 Ba -4.3105 1.1202 2.7062 0
M  V30 85 Ba -0.3313 -7.4680 2.0973 0
M  V30 86 Ga -1.3777 -7.3622 1.0619 0
M  V30 87 Ba -2.4427 -7.1628 0.0597 0
M  V30 88 Ba 3.1282 -4.9898 -3.4810 0
M  V30 89 Ga 3.6926 -5.0382 -2.1173 0
M  V30 90 Ba 4.2273 -4.9989 -0.7413 0
M  V30 91 Ba -0.4592 2.8251 3.3835 0
M  V30 92 Ga 0.1239 3.9102 2.5652 0
M  V30 93 Ba 0.5925 5.0673 1.7724 0
M  V30 94 Ba 3.5547 -2.6323 -3.6494 0
M  V30 95 Ga 4.1077 -2.5985 -2.2844 0
M  V30 96 Ba 4.5988 -2.6398 -0.8960 0
M  V30 97 Ba 0.6746 4.8931 -4.5027 0
M  V30 98 Ga -0.4471 5.6469 -3.9028 0
M  V30 99 Ba -1.5595 6.3869 -3.2692 0
M  V30 END ATOM
M  V30 BEGIN BOND
M  V30 1 1 1 2
M  V30 2 1 1 3
M  V30 3 1 1 4
M  V30 4 1 1 5
M  V30 5 1 6 7
M  V30 6 1 6 8
M  V30 7 1 6 9
M  V30 8 1 6 10
M  V30 9 1 11 12
M  V30 10 1 11 13
M  V30 11 1 11 14
M  V30 12 1 11 15
M  V30 13 1 16 17
M  V30 14 1 16 18
M  V30 15 1 16 19
M  V30 16 1 16 20
M  V30 17 1 21 22
M  V30 18 1 21 23
M  V30 19 1 21 24
M  V30 20 1 21 25
M  V30 21 1 26 27
M  V30 22 1 26 28
M  V30 23 1 26 29
M  V30 24 1 26 30
M  V30 25 1 31 32
M  V30 26 1 31 33
M  V30 27 1 31 34
M  V30 28 1 31 35
M  V30 29 1 36 37
M  V30 30 1 36 38
M  V30 31 1 36 39
M  V30 32 1 36 40
M  V30 33 1 41 42
M  V30 34 1 41 43
M  V30 35 1 41 44
M  V30 36 1 41 45
M  V30 37 1 46 47
M  V30 38 1 47 48
M  V30 39 1 49 50
M  V30 40 1 50 51
M  V30 41 1 52 53
M  V30 42 1 53 54
M  V30 43 1 55 56
M  V30 44 1 56 57
M  V30 45 1 58 59
M  V30 46 1 59 60
M  V30 47 1 61 62
M  V30 48 1 62 63
M  V30 49 1 64 65
M  V30 50 1 65 66
M  V30 51 1 67 68
M  V30 52 1 68 69
M  V30 53 1 70 71
M  V30 54 1 71 72
M  V30 55 1 73 74
M  V30 56 1 74 75
M  V30 57 1 76 77
M  V30 58 1 77 78
M  V30 59 1 79 80
M  V30 60 1 80 81
M  V30 61 1 82 83
M  V30 62 1 83 84
M  V30 63 1 85 86
M  V30 64 1 86 87
M  V30 65 1 88 89
M  V30 66 1 89 90
M  V30 67 1 91 92
M  V30 68 1 92 93
M  V30 69 1 94 95
M  V30 70 1 95 96
M  V30 71 1 97 98
M  V30 72 1 98 99
M  V30 73 1 2 82
M  V30 74 1 3 46
M  V30 75 1 4 91
M  V30 76 1 5 55
M  V30 77 1 7 79
M  V30 78 1 8 76
M  V30 79 1 9 93
M  V30 80 1 10 70
M  V30 81 1 12 52
M  V30 82 1 13 78
M  V30 83 1 14 97
M  V30 84 1 15 81
M  V30 85 1 17 67
M  V30 86 1 18 49
M  V30 87 1 19 58
M  V30 88 1 20 84
M  V30 89 1 22 94
M  V30 90 1 23 61
M  V30 91 1 24 54
M  V30 92 1 25 88
M  V30 93 1 27 60
M  V30 94 1 28 69
M  V30 95 1 29 99
M  V30 96 1 30 72
M  V30 97 1 32 64
M  V30 98 1 33 73
M  V30 99 1 34 85
M  V30 100 1 35 48
M  V30 101 1 37 75
M  V30 102 1 38 90
M  V30 103 1 39 57
M  V30 104 1 40 96
M  V30 105 1 42 51
M  V30 106 1 43 87
M  V30 107 1 44 66
M  V30 108 1 45 63
M  V30 END BOND
M  V30 END CTAB
M  END

$$$$
