
     RDKit          3D

  0  0  0  0  0  0  0  0  0  0999 V3000
M  V30 BEGIN CTAB
M  V30 COUNTS 99 108 0 0 0
M  V30 BEGIN ATOM
M  V30 1 Pd 6.7555 0.4520 -1.0763 0
M  V30 2 Pb 7.5352 0.7089 -0.5154 0
M  V30 3 Pb 6.0752 0.1473 -1.7430 0
M  V30 4 Pb 6.4709 1.4239 -1.1040 0
M  V30 5 Pb 6.7645 -0.4762 -0.7219 0
M  V30 6 Pd 4.5961 3.1214 3.0585 0
M  V30 7 Pb 3.6337 2.8689 2.9488 0
M  V30 8 Pb 4.5176 2.6406 3.9268 0
M  V30 9 Pb 4.7493 3.3783 2.0822 0
M  V30 10 Pb 5.5431 3.3500 3.2624 0
M  V30 11 Pd 0.3093 -3.1810 -3.6175 0
M  V30 12 Pb -0.6310 -3.3400 -3.3381 0
M  V30 13 Pb 0.5862 -3.7301 -2.8270 0
M  V30 14 Pb 0.0238 -2.6535 -4.4207 0
M  V30 15 Pb 1.2448 -2.8893 -3.8075 0
M  V30 16 Pd -0.9752 1.9886 -4.7758 0
M  V30 17 Pb 0.0004 2.1879 -4.7505 0
M  V30 18 Pb -0.8404 1.1719 -5.3372 0
M  V30 19 Pb -1.1430 2.7657 -4.1525 0
M  V30 20 Pb -1.9490 1.8088 -4.7015 0
M  V30 21 Pd -3.5565 1.5553 -0.1668 0
M  V30 22 Pb -4.4644 1.6242 -0.5726 0
M  V30 23 Pb -2.9948 1.3985 0.6549 0
M  V30 24 Pb -3.7185 1.6526 -1.1522 0
M  V30 25 Pb -3.6320 0.5742 -0.3210 0
M  V30 26 Pd -5.9763 -1.7632 1.1522 0
M  V30 27 Pb -6.3761 -1.2995 0.3653 0
M  V30 28 Pb -5.6211 -2.2099 1.9666 0
M  V30 29 Pb -5.8767 -0.8608 1.5786 0
M  V30 30 Pb -5.8663 -2.6286 0.6566 0
M  V30 31 Pd -1.7634 -4.5728 1.4777 0
M  V30 32 Pb -2.5158 -4.7043 0.8228 0
M  V30 33 Pb -2.4437 -4.3965 2.1824 0
M  V30 34 Pb -1.0420 -4.7560 0.8017 0
M  V30 35 Pb -1.0693 -4.4116 2.1771 0
M  V30 36 Pd 1.2894 -0.3200 3.0348 0
M  V30 37 Pb 1.0306 -1.2124 3.4027 0
M  V30 38 Pb 2.0550 -0.2593 3.6798 0
M  V30 39 Pb 0.3337 -0.0394 2.8856 0
M  V30 40 Pb 2.1308 -0.7876 2.7417 0
M  V30 41 Pd -0.6663 3.4500 0.7149 0
M  V30 42 Pb -1.0585 3.8020 -0.1449 0
M  V30 43 Pb -0.2248 3.0539 1.5132 0
M  V30 44 Pb -1.5761 3.2553 1.1029 0
M  V30 45 Pb 0.2362 3.5989 0.3186 0
M  V30 46 Ag 8.0458 0.9848 -0.0561 0
M  V30 47 Fe 7.7864 2.3310 1.8496 0
M  V30 48 Ag 6.2799 3.3906 3.3037 0
M  V30 49 Ag -5.7008 -0.1690 1.8211 0
M  V30 50 Fe -4.0289 1.5200 1.6718 0
M  V30 51 Ag -2.2504 3.0826 1.4032 0
M  V30 52 Ag -1.3011 -3.3519 -3.0172 0
M  V30 53 Fe -2.6519 -1.8835 -1.7431 0
M  V30 54 Ag -3.6930 -0.1411 -0.5237 0
M  V30 55 Ag 0.6741 2.3989 -4.5238 0
M  V30 56 Fe 1.2699 3.1273 -2.3611 0
M  V30 57 Ag 0.8514 3.6435 -0.0971 0
M  V30 58 Ag 6.5488 -1.0580 -0.3085 0
M  V30 59 Fe 4.6866 -1.3036 1.1482 0
M  V30 60 Ag 2.7360 -1.1731 2.5025 0
M  V30 61 Ag 5.6571 -0.1696 -2.2802 0
M  V30 62 Fe 3.7766 -1.3739 -3.0890 0
M  V30 63 Ag 1.9098 -2.5712 -3.9389 0
M  V30 64 Ba -0.6022 -4.2685 2.7445 0
M  V30 65 Ga 0.1503 -3.0848 3.1975 0
M  V30 66 Ba 0.9055 -1.9059 3.6585 0
M  V30 67 Ba -2.6764 1.2485 1.3256 0
M  V30 68 Ga -1.4656 0.7221 2.0016 0
M  V30 69 Ba -0.3723 0.2332 2.8765 0
M  V30 70 Ba -5.1395 1.5419 -0.8790 0
M  V30 71 Ga -6.0024 0.3852 -0.6200 0
M  V30 72 Ba -6.6452 -0.8530 -0.1689 0
M  V30 73 Ba -1.3303 3.3377 -3.6879 0
M  V30 74 Ga -1.2958 3.6727 -2.2390 0
M  V30 75 Ba -1.2975 4.0812 -0.8087 0
M  V30 76 Ba -2.6714 1.7321 -4.5430 0
M  V30 77 Ga -3.3117 1.6896 -3.2170 0
M  V30 78 Ba -3.9248 1.6556 -1.8777 0
M  V30 79 Ba 2.9257 2.6277 3.0327 0
M  V30 80 Ga 1.5503 2.7177 2.5113 0
M  V30 81 Ba 0.1424 2.7299 2.0744 0
M  V30 82 Ba 0.7578 -4.1703 -2.2424 0
M  V30 83 Ga 0.1244 -4.5125 -0.9493 0
M  V30 84 Ba -0.4494 -4.9043 0.3572 0
M  V30 85 Ba -5.6716 -3.2560 0.2851 0
M  V30 86 Ga -4.4164 -4.0470 0.3128 0
M  V30 87 Ba -3.1335 -4.7887 0.3936 0
M  V30 88 Ba 6.1885 2.1292 -0.9943 0
M  V30 89 Ga 5.5554 2.8223 0.1796 0
M  V30 90 Ba 4.9194 3.5288 1.3438 0
M  V30 91 Ba -0.1528 -2.2670 -5.0418 0
M  V30 92 Ga -0.4602 -0.8631 -5.3826 0
M  V30 93 Ba -0.7693 0.5382 -5.7327 0
M  V30 94 Ba -5.3484 -2.5713 2.5573 0
M  V30 95 Ga -4.1572 -3.4166 2.6881 0
M  V30 96 Ba -2.9450 -4.2417 2.7115 0
M  V30 97 Ba 4.4295 2.1405 4.4742 0
M  V30 98 Ga 3.5233 0.9770 4.4198 0
M  V30 99 Ba 2.5700 -0.1311 4.2148 0
M  V30 END ATOM
M  V30 BEGIN BOND
M  V30 1 1 1 2
M  V30 2 1 1 3
M  V30 3 1 1 4
M  V30 4 1 1 5
M  V30 5 1 6 7
M  V30 6 1 6 8
M  V30 7 1 6 9
M  V30 8 1 6 10
M  V30 9 1 11 12
M  V30 10 1 11 13
M  V30 11 1 11 14
M  V30 12 1 11 15
M  V30 13 1 16 17
M  V30 14 1 16 18
M  V30 15 1 16 19
M  V30 16 1 16 20
M  V30 17 1 21 22
M  V30 18 1 21 23
M  V30 19 1 21 24
M  V30 20 1 21 25
M  V30 21 1 26 27
M  V30 22 1 26 28
M  V30 23 1 26 29
M  V30 24 1 26 30
M  V30 25 1 31 32
M  V30 26 1 31 33
M  V30 27 1 31 34
M  V30 28 1 31 35
M  V30 29 1 36 37
M  V30 30 1 36 38
M  V30 31 1 36 39
M  V30 32 1 36 40
M  V30 33 1 41 42
M  V30 34 1 41 43
M  V30 35 1 41 44
M  V30 36 1 41 45
M  V30 37 1 46 47
M  V30 38 1 47 48
M  V30 39 1 49 50
M  V30 40 1 50 51
M  V30 41 1 52 53
M  V30 42 1 53 54
M  V30 43 1 55 56
M  V30 44 1 56 57
M  V30 45 1 58 59
M  V30 46 1 59 60
M  V30 47 1 61 62
M  V30 48 1 62 63
M  V30 49 1 64 65
M  V30 50 1 65 66
M  V30 51 1 67 68
M  V30 52 1 68 69
M  V30 53 1 70 71
M  V30 54 1 71 72
M  V30 55 1 73 74
M  V30 56 1 74 75
M  V30 57 1 76 77
M  V30 58 1 77 78
M  V30 59 1 79 80
M  V30 60 1 80 81
M  V30 61 1 82 83
M  V30 62 1 83 84
M  V30 63 1 85 86
M  V30 64 1 86 87
M  V30 65 1 88 89
M  V30 66 1 89 90
M  V30 67 1 91 92
M  V30 68 1 92 93
M  V30 69 1 94 95
M  V30 70 1 95 96
M  V30 71 1 97 98
M  V30 72 1 98 99
M  V30 73 1 2 46
M  V30 74 1 3 61
M  V30 75 1 4 88
M  V30 76 1 5 58
M  V30 77 1 7 79
M  V30 78 1 8 97
M  V30 79 1 9 90
M  V30 80 1 10 48
M  V30 81 1 12 52
M  V30 82 1 13 82
M  V30 83 1 14 91
M  V30 84 1 15 63
M  V30 85 1 17 55
M  V30 86 1 18 93
M  V30 87 1 19 73
M  V30 88 1 20 76
M  V30 89 1 22 70
M  V30 90 1 23 67
M  V30 91 1 24 78
M  V30 92 1 25 54
M  V30 93 1 27 72
M  V30 94 1 28 94
M  V30 95 1 29 49
M  V30 96 1 30 85
M  V30 97 1 32 87
M  V30 98 1 33 96
M  V30 99 1 34 84
M  V30 100 1 35 64
M  V30 101 1 37 66
M  V30 102 1 38 99
M  V30 103 1 39 69
M  V30 104 1 40 60
M  V30 105 1 42 75
M  V30 106 1 43 81
M  V30 107 1 44 51
M  V30 108 1 45 57
M  V30 END BOND
M  V30 END CTAB
M  END

$$$$
