
     RDKit          3D

  0  0  0  0  0  0  0  0  0  0999 V3000
M  V30 BEGIN CTAB
M  V30 COUNTS 99 108 0 0 0
M  V30 BEGIN ATOM
M  V30 1 Pd -0.3899 2.8665 -2.6733 0
M  V30 2 Pb -1.2955 2.9377 -3.0924 0
M  V30 3 Pb -0.7994 2.5953 -1.7982 0
M  V30 4 Pb 0.0209 3.1070 -3.5534 0
M  V30 5 Pb 0.5242 2.7924 -2.2753 0
M  V30 6 Pd -0.2946 1.5225 8.8713 0
M  V30 7 Pb -0.0694 0.6371 8.4645 0
M  V30 8 Pb -1.2339 1.5143 8.4849 0
M  V30 9 Pb 0.6820 1.6617 9.0193 0
M  V30 10 Pb -0.4941 2.3951 9.3070 0
M  V30 11 Pd -3.5414 -5.0586 -1.4737 0
M  V30 12 Pb -4.4634 -4.7808 -1.2294 0
M  V30 13 Pb -3.2498 -4.9579 -0.5246 0
M  V30 14 Pb -2.6070 -5.3567 -1.6651 0
M  V30 15 Pb -3.8084 -5.0374 -2.4584 0
M  V30 16 Pd 3.6131 -3.0500 -2.9074 0
M  V30 17 Pb 3.1108 -3.8256 -2.5323 0
M  V30 18 Pb 3.9815 -2.2417 -3.3972 0
M  V30 19 Pb 3.2840 -2.4465 -2.1809 0
M  V30 20 Pb 3.8935 -3.6296 -3.6664 0
M  V30 21 Pd 2.2130 -2.1677 2.7828 0
M  V30 22 Pb 2.0717 -2.3524 3.7532 0
M  V30 23 Pb 1.3159 -2.5837 2.6253 0
M  V30 24 Pb 2.2864 -1.8682 1.8303 0
M  V30 25 Pb 3.1227 -1.7889 2.9676 0
M  V30 26 Pd 1.9547 0.2795 -7.1093 0
M  V30 27 Pb 2.7573 0.2279 -6.4919 0
M  V30 28 Pb 1.0935 0.2124 -7.6103 0
M  V30 29 Pb 1.6991 1.1780 -6.7442 0
M  V30 30 Pb 2.2426 -0.5795 -7.5210 0
M  V30 31 Pd -5.2760 -1.4577 -5.6666 0
M  V30 32 Pb -5.3303 -0.4631 -5.6371 0
M  V30 33 Pb -4.5487 -1.3569 -6.3475 0
M  V30 34 Pb -5.0915 -2.4493 -5.5284 0
M  V30 35 Pb -6.0265 -1.5190 -5.0187 0
M  V30 36 Pd 4.2398 2.7164 3.4960 0
M  V30 37 Pb 4.7035 1.8319 3.5159 0
M  V30 38 Pb 3.6961 3.5552 3.4438 0
M  V30 39 Pb 4.2503 2.7316 4.4987 0
M  V30 40 Pb 4.1984 2.6719 2.4993 0
M  V30 41 Pd -2.5306 4.2628 4.6883 0
M  V30 42 Pb -2.9125 3.5729 5.3291 0
M  V30 43 Pb -2.4719 3.5950 3.9435 0
M  V30 44 Pb -1.9297 4.8691 4.1731 0
M  V30 45 Pb -2.5939 4.9480 5.4076 0
M  V30 46 Ag 0.1611 -0.0195 8.1837 0
M  V30 47 Fe 1.0281 -1.2776 6.3663 0
M  V30 48 Ag 1.8868 -2.4262 4.4743 0
M  V30 49 Ag -1.9613 2.9680 -3.4370 0
M  V30 50 Fe -3.6907 1.7480 -4.5111 0
M  V30 51 Ag -5.2492 0.2698 -5.5197 0
M  V30 52 Ag -0.7018 3.0819 9.4903 0
M  V30 53 Fe -1.7178 4.7067 8.1277 0
M  V30 54 Ag -2.5688 5.3466 6.0312 0
M  V30 55 Ag -5.1431 -4.4978 -1.1636 0
M  V30 56 Fe -6.3095 -3.0088 -2.5612 0
M  V30 57 Ag -6.5051 -1.6496 -4.4705 0
M  V30 58 Ag 4.0006 -3.9297 -4.3342 0
M  V30 59 Fe 3.4117 -2.9858 -6.4076 0
M  V30 60 Ag 2.5125 -1.2437 -7.7105 0
M  V30 61 Ag -1.8906 -5.5748 -1.7043 0
M  V30 62 Fe 0.4018 -5.0401 -2.0115 0
M  V30 63 Ag 2.6610 -4.3932 -2.3462 0
M  V30 64 Ag 1.4110 1.8162 8.9528 0
M  V30 65 Fe 2.9501 2.2745 7.2020 0
M  V30 66 Ag 4.2394 2.6940 5.2506 0
M  V30 67 Ag 1.2160 2.7375 -1.9914 0
M  V30 68 Fe 2.6899 2.6867 -0.1310 0
M  V30 69 Ag 4.1321 2.6403 1.7542 0
M  V30 70 Ag 3.2264 4.1331 3.3466 0
M  V30 71 Fe 0.9704 4.8491 3.5369 0
M  V30 72 Ag -1.3476 5.2331 3.8775 0
M  V30 73 Ag -1.1015 2.3678 -1.1464 0
M  V30 74 Fe -1.7599 2.7482 1.1070 0
M  V30 75 Ag -2.4209 3.1223 3.3607 0
M  V30 76 Ag 0.4245 0.0728 -7.9174 0
M  V30 77 Fe -1.8164 -0.5614 -7.4484 0
M  V30 78 Ag -4.0297 -1.2013 -6.8685 0
M  V30 79 Ag -2.9759 -4.8234 0.1586 0
M  V30 80 Fe -1.1685 -3.8798 1.3770 0
M  V30 81 Ag 0.6495 -2.9274 2.5726 0
M  V30 82 Ba 3.8126 -1.5231 3.1084 0
M  V30 83 Ga 4.4192 -0.1932 3.3151 0
M  V30 84 Ba 5.0052 1.1463 3.5187 0
M  V30 85 Ba 3.0208 -1.9490 -1.6850 0
M  V30 86 Ga 2.6915 -1.8300 -0.2513 0
M  V30 87 Ba 2.3162 -1.5533 1.1489 0
M  V30 88 Ba 4.2298 -1.6292 -3.7823 0
M  V30 89 Ga 3.7617 -0.7549 -4.9003 0
M  V30 90 Ba 3.3481 0.1541 -6.0121 0
M  V30 91 Ba -4.0187 -5.0195 -3.1994 0
M  V30 92 Ga -4.4739 -4.0603 -4.2588 0
M  V30 93 Ba -4.9349 -3.1890 -5.3893 0
M  V30 94 Ba -1.9185 1.5567 8.1407 0
M  V30 95 Ga -2.5123 2.3124 6.9906 0
M  V30 96 Ba -3.1369 3.0520 5.8463 0
M  V30 97 Ba 0.3246 3.2863 -4.2160 0
M  V30 98 Ga 0.9232 2.5507 -5.3489 0
M  V30 99 Ba 1.5319 1.8749 -6.5131 0
M  V30 END ATOM
M  V30 BEGIN BOND
M  V30 1 1 1 2
M  V30 2 1 1 3
M  V30 3 1 1 4
M  V30 4 1 1 5
M  V30 5 1 6 7
M  V30 6 1 6 8
M  V30 7 1 6 9
M  V30 8 1 6 10
M  V30 9 1 11 12
M  V30 10 1 11 13
M  V30 11 1 11 14
M  V30 12 1 11 15
M  V30 13 1 16 17
M  V30 14 1 16 18
M  V30 15 1 16 19
M  V30 16 1 16 20
M  V30 17 1 21 22
M  V30 18 1 21 23
M  V30 19 1 21 24
M  V30 20 1 21 25
M  V30 21 1 26 27
M  V30 22 1 26 28
M  V30 23 1 26 29
M  V30 24 1 26 30
M  V30 25 1 31 32
M  V30 26 1 31 33
M  V30 27 1 31 34
M  V30 28 1 31 35
M  V30 29 1 36 37
M  V30 30 1 36 38
M  V30 31 1 36 39
M  V30 32 1 36 40
M  V30 33 1 41 42
M  V30 34 1 41 43
M  V30 35 1 41 44
M  V30 36 1 41 45
M  V30 37 1 46 47
M  V30 38 1 47 48
M  V30 39 1 49 50
M  V30 40 1 50 51
M  V30 41 1 52 53
M  V30 42 1 53 54
M  V30 43 1 55 56
M  V30 44 1 56 57
M  V30 45 1 58 59
M  V30 46 1 59 60
M  V30 47 1 61 62
M  V30 48 1 62 63
M  V30 49 1 64 65
M  V30 50 1 65 66
M  V30 51 1 67 68
M  V30 52 1 68 69
M  V30 53 1 70 71
M  V30 54 1 71 72
M  V30 55 1 73 74
M  V30 56 1 74 75
M  V30 57 1 76 77
M  V30 58 1 77 78
M  V30 59 1 79 80
M  V30 60 1 80 81
M  V30 61 1 82 83
M  V30 62 1 83 84
M  V30 63 1 85 86
M  V30 64 1 86 87
M  V30 65 1 88 89
M  V30 66 1 89 90
M  V30 67 1 91 92
M  V30 68 1 92 93
M  V30 69 1 94 95
M  V30 70 1 95 96
M  V30 71 1 97 98
M  V30 72 1 98 99
M  V30 73 1 2 49
M  V30 74 1 3 73
M  V30 75 1 4 97
M  V30 76 1 5 67
M  V30 77 1 7 46
M  V30 78 1 8 94
M  V30 79 1 9 64
M  V30 80 1 10 52
M  V30 81 1 12 55
M  V30 82 1 13 79
M  V30 83 1 14 61
M  V30 84 1 15 91
M  V30 85 1 17 63
M  V30 86 1 18 88
M  V30 87 1 19 85
M  V30 88 1 20 58
M  V30 89 1 22 48
M  V30 90 1 23 81
M  V30 91 1 24 87
M  V30 92 1 25 82
M  V30 93 1 27 90
M  V30 94 1 28 76
M  V30 95 1 29 99
M  V30 96 1 30 60
M  V30 97 1 32 51
M  V30 98 1 33 78
M  V30 99 1 34 93
M  V30 100 1 35 57
M  V30 101 1 37 84
M  V30 102 1 38 70
M  V30 103 1 39 66
M  V30 104 1 40 69
M  V30 105 1 42 96
M  V30 106 1 43 75
M  V30 107 1 44 72
M  V30 108 1 45 54
M  V30 END BOND
M  V30 END CTAB
M  END

$$$$
