
     RDKit          3D

  0  0  0  0  0  0  0  0  0  0999 V3000
M  V30 BEGIN CTAB
M  V30 COUNTS 99 108 0 0 0
M  V30 BEGIN ATOM
M  V30 1 Pd 3.9125 -4.9695 -4.3627 0
M  V30 2 Pb 3.3361 -5.7674 -4.2311 0
M  V30 3 Pb 3.4561 -4.7771 -5.2207 0
M  V30 4 Pb 4.5436 -4.2165 -4.5743 0
M  V30 5 Pb 4.2235 -5.0614 -3.4000 0
M  V30 6 Pd -2.4953 5.5404 2.9775 0
M  V30 7 Pb -3.0494 6.0123 2.2922 0
M  V30 8 Pb -1.7003 5.9681 2.5535 0
M  V30 9 Pb -3.2900 5.0907 3.3850 0
M  V30 10 Pb -1.8915 4.9205 3.4707 0
M  V30 11 Pd -2.3734 -4.1842 7.6930 0
M  V30 12 Pb -1.5945 -3.5536 7.6826 0
M  V30 13 Pb -2.4290 -4.0382 8.6741 0
M  V30 14 Pb -2.3174 -4.3432 6.7070 0
M  V30 15 Pb -3.3501 -4.4091 7.7104 0
M  V30 16 Pd -0.5053 6.0718 -3.7826 0
M  V30 17 Pb -0.0395 6.4544 -2.9895 0
M  V30 18 Pb -1.3638 6.2725 -3.3025 0
M  V30 19 Pb 0.3612 5.8755 -4.2355 0
M  V30 20 Pb -0.9692 5.6150 -4.5397 0
M  V30 21 Pd 4.5878 0.6726 -5.9067 0
M  V30 22 Pb 4.9599 -0.2610 -5.8713 0
M  V30 23 Pb 4.2815 1.6223 -5.9083 0
M  V30 24 Pb 4.7867 0.7687 -4.9394 0
M  V30 25 Pb 4.2245 0.6168 -6.8359 0
M  V30 26 Pd 1.7027 -5.1514 1.0588 0
M  V30 27 Pb 2.5439 -5.1598 0.4797 0
M  V30 28 Pb 0.8566 -5.1323 1.5925 0
M  V30 29 Pb 1.4408 -6.0319 0.6807 0
M  V30 30 Pb 1.9216 -4.2442 1.4122 0
M  V30 31 Pd -0.0111 -0.1351 -0.2744 0
M  V30 32 Pb 0.5434 -0.5948 0.4223 0
M  V30 33 Pb 0.1264 0.2840 0.6246 0
M  V30 34 Pb -0.4412 -0.0892 -1.1893 0
M  V30 35 Pb 0.8707 0.2045 -0.5881 0
M  V30 36 Pd -4.9687 1.1419 8.7666 0
M  V30 37 Pb -5.1902 1.6026 7.9067 0
M  V30 38 Pb -5.7551 0.5248 8.6943 0
M  V30 39 Pb -4.7496 0.6980 9.6280 0
M  V30 40 Pb -3.9976 1.3772 8.6863 0
M  V30 41 Pd -0.1198 0.9895 -6.1700 0
M  V30 42 Pb -0.5508 1.8972 -6.1862 0
M  V30 43 Pb -0.6301 0.7377 -5.3373 0
M  V30 44 Pb 0.4464 1.1802 -6.9764 0
M  V30 45 Pb 0.2167 0.0602 -6.2859 0
M  V30 46 Ag 0.9989 5.7059 -4.5861 0
M  V30 47 Fe 2.5470 4.0363 -5.2516 0
M  V30 48 Ag 4.0738 2.3409 -5.9010 0
M  V30 49 Ag -3.3536 6.2817 1.6609 0
M  V30 50 Fe -2.8026 6.4407 -0.6473 0
M  V30 51 Ag -1.9570 6.4467 -2.8706 0
M  V30 52 Ag -1.2190 -2.8993 7.7293 0
M  V30 53 Fe -1.9432 -0.6643 8.1405 0
M  V30 54 Ag -3.2556 1.2778 8.5819 0
M  V30 55 Ag -2.2801 -4.4814 5.9705 0
M  V30 56 Fe -1.0163 -4.7888 3.9827 0
M  V30 57 Ag 0.2102 -5.1030 1.9728 0
M  V30 58 Ag 4.7865 0.8587 -4.2032 0
M  V30 59 Fe 3.2658 0.6670 -2.3987 0
M  V30 60 Ag 1.5658 0.4053 -0.7712 0
M  V30 61 Ag -3.8637 4.7269 3.7027 0
M  V30 62 Fe -4.6366 3.3476 5.4751 0
M  V30 63 Ag -5.3518 1.9683 7.2716 0
M  V30 64 Ag -4.0961 -4.3023 7.7689 0
M  V30 65 Fe -5.4117 -2.3546 8.1751 0
M  V30 66 Ag -6.1349 -0.1218 8.6001 0
M  V30 67 Ag -1.1367 6.2743 2.1709 0
M  V30 68 Fe -0.2992 6.5809 -0.0249 0
M  V30 69 Ag 0.2280 6.6855 -2.3329 0
M  V30 70 Ag 3.0378 -4.5183 -5.7741 0
M  V30 71 Fe 1.7316 -2.5949 -6.2201 0
M  V30 72 Ag 0.4674 -0.6115 -6.4935 0
M  V30 73 Ag 2.9230 -6.3462 -4.0260 0
M  V30 74 Fe 1.8906 -6.9524 -2.0002 0
M  V30 75 Ag 1.2950 -6.6140 0.2502 0
M  V30 76 Ag -1.4283 4.3718 3.6736 0
M  V30 77 Fe -0.5152 2.4398 2.6423 0
M  V30 78 Ag 0.1885 0.6171 1.2949 0
M  V30 79 Ag -2.5338 -3.8085 9.3698 0
M  V30 80 Fe -3.4930 -1.8452 10.2501 0
M  V30 81 Ag -4.5342 0.2671 10.1900 0
M  V30 82 Ba 4.4158 -5.1177 -2.6597 0
M  V30 83 Ga 3.7477 -5.1438 -1.3186 0
M  V30 84 Ba 3.1999 -5.1808 0.0755 0
M  V30 85 Ba 3.8373 0.6928 -7.4750 0
M  V30 86 Ga 2.3854 0.9537 -7.5996 0
M  V30 87 Ba 0.9265 1.2035 -7.5583 0
M  V30 88 Ba -1.2806 5.2390 -5.1076 0
M  V30 89 Ga -1.0855 3.8834 -5.6636 0
M  V30 90 Ba -0.9361 2.5419 -6.2657 0
M  V30 91 Ba 5.0419 -3.7068 -4.8244 0
M  V30 92 Ga 5.1100 -2.3000 -5.2860 0
M  V30 93 Ba 5.3233 -0.9168 -5.7743 0
M  V30 94 Ba -0.8625 -0.0597 -1.8230 0
M  V30 95 Ga -0.8546 0.2526 -3.2767 0
M  V30 96 Ba -1.0277 0.5210 -4.7291 0
M  V30 97 Ba 2.0385 -3.5546 1.6771 0
M  V30 98 Ga 1.5153 -2.2269 1.3040 0
M  V30 99 Ba 0.9981 -0.8940 0.9417 0
M  V30 END ATOM
M  V30 BEGIN BOND
M  V30 1 1 1 2
M  V30 2 1 1 3
M  V30 3 1 1 4
M  V30 4 1 1 5
M  V30 5 1 6 7
M  V30 6 1 6 8
M  V30 7 1 6 9
M  V30 8 1 6 10
M  V30 9 1 11 12
M  V30 10 1 11 13
M  V30 11 1 11 14
M  V30 12 1 11 15
M  V30 13 1 16 17
M  V30 14 1 16 18
M  V30 15 1 16 19
M  V30 16 1 16 20
M  V30 17 1 21 22
M  V30 18 1 21 23
M  V30 19 1 21 24
M  V30 20 1 21 25
M  V30 21 1 26 27
M  V30 22 1 26 28
M  V30 23 1 26 29
M  V30 24 1 26 30
M  V30 25 1 31 32
M  V30 26 1 31 33
M  V30 27 1 31 34
M  V30 28 1 31 35
M  V30 29 1 36 37
M  V30 30 1 36 38
M  V30 31 1 36 39
M  V30 32 1 36 40
M  V30 33 1 41 42
M  V30 34 1 41 43
M  V30 35 1 41 44
M  V30 36 1 41 45
M  V30 37 1 46 47
M  V30 38 1 47 48
M  V30 39 1 49 50
M  V30 40 1 50 51
M  V30 41 1 52 53
M  V30 42 1 53 54
M  V30 43 1 55 56
M  V30 44 1 56 57
M  V30 45 1 58 59
M  V30 46 1 59 60
M  V30 47 1 61 62
M  V30 48 1 62 63
M  V30 49 1 64 65
M  V30 50 1 65 66
M  V30 51 1 67 68
M  V30 52 1 68 69
M  V30 53 1 70 71
M  V30 54 1 71 72
M  V30 55 1 73 74
M  V30 56 1 74 75
M  V30 57 1 76 77
M  V30 58 1 77 78
M  V30 59 1 79 80
M  V30 60 1 80 81
M  V30 61 1 82 83
M  V30 62 1 83 84
M  V30 63 1 85 86
M  V30 64 1 86 87
M  V30 65 1 88 89
M  V30 66 1 89 90
M  V30 67 1 91 92
M  V30 68 1 92 93
M  V30 69 1 94 95
M  V30 70 1 95 96
M  V30 71 1 97 98
M  V30 72 1 98 99
M  V30 73 1 2 73
M  V30 74 1 3 70
M  V30 75 1 4 91
M  V30 76 1 5 82
M  V30 77 1 7 49
M  V30 78 1 8 67
M  V30 79 1 9 61
M  V30 80 1 10 76
M  V30 81 1 12 52
M  V30 82 1 13 79
M  V30 83 1 14 55
M  V30 84 1 15 64
M  V30 85 1 17 69
M  V30 86 1 18 51
M  V30 87 1 19 46
M  V30 88 1 20 88
M  V30 89 1 22 93
M  V30 90 1 23 48
M  V30 91 1 24 58
M  V30 92 1 25 85
M  V30 93 1 27 84
M  V30 94 1 28 57
M  V30 95 1 29 75
M  V30 96 1 30 97
M  V30 97 1 32 99
M  V30 98 1 33 78
M  V30 99 1 34 94
M  V30 100 1 35 60
M  V30 101 1 37 63
M  V30 102 1 38 66
M  V30 103 1 39 81
M  V30 104 1 40 54
M  V30 105 1 42 90
M  V30 106 1 43 96
M  V30 107 1 44 87
M  V30 108 1 45 72
M  V30 END BOND
M  V30 END CTAB
M  END

$$$$
