
     RDKit          3D

  0  0  0  0  0  0  0  0  0  0999 V3000
M  V30 BEGIN CTAB
M  V30 COUNTS 99 108 0 0 0
M  V30 BEGIN ATOM
M  V30 1 Pd -4.7334 -1.5722 0.2542 0
M  V30 2 Pb -5.0002 -2.2544 -0.4249 0
M  V30 3 Pb -4.4720 -0.9646 -0.4953 0
M  V30 4 Pb -4.9396 -2.2296 0.9780 0
M  V30 5 Pb -4.3627 -0.9290 0.9239 0
M  V30 6 Pd 0.6779 7.9127 -1.9335 0
M  V30 7 Pb 1.5953 7.5476 -1.7724 0
M  V30 8 Pb -0.2362 8.2630 -2.0977 0
M  V30 9 Pb 0.5907 8.2905 -1.0144 0
M  V30 10 Pb 0.5870 7.3901 -2.7828 0
M  V30 11 Pd 4.2469 -2.7721 -3.2256 0
M  V30 12 Pb 3.7383 -2.4647 -4.0209 0
M  V30 13 Pb 4.6221 -1.8532 -3.0975 0
M  V30 14 Pb 4.7831 -3.0543 -2.4311 0
M  V30 15 Pb 3.8143 -3.6934 -3.3161 0
M  V30 16 Pd 4.3869 -3.3478 4.2773 0
M  V30 17 Pb 5.0365 -3.3676 3.5209 0
M  V30 18 Pb 4.3205 -4.3416 4.2328 0
M  V30 19 Pb 4.3945 -2.3476 4.2896 0
M  V30 20 Pb 3.6483 -3.3796 4.9518 0
M  V30 21 Pd 3.6510 3.7657 0.8126 0
M  V30 22 Pb 3.6545 4.5314 0.1656 0
M  V30 23 Pb 4.1470 3.2158 0.1377 0
M  V30 24 Pb 3.7452 3.0503 1.5080 0
M  V30 25 Pb 3.1334 4.2997 1.4819 0
M  V30 26 Pd -1.4019 -7.2037 3.8020 0
M  V30 27 Pb -0.4671 -7.5478 3.8372 0
M  V30 28 Pb -1.5444 -7.7026 2.9477 0
M  V30 29 Pb -2.3062 -6.7824 3.7440 0
M  V30 30 Pb -1.1618 -6.6128 4.5729 0
M  V30 31 Pd -0.7580 -6.0203 -3.6672 0
M  V30 32 Pb -1.7489 -5.8990 -3.6353 0
M  V30 33 Pb -0.8466 -6.6833 -2.9211 0
M  V30 34 Pb 0.2615 -6.0390 -3.6347 0
M  V30 35 Pb -0.7091 -5.3705 -4.4162 0
M  V30 36 Pd -1.6768 5.3468 1.9488 0
M  V30 37 Pb -0.7411 5.3404 2.3082 0
M  V30 38 Pb -2.6387 5.3286 1.6456 0
M  V30 39 Pb -1.4943 6.3115 1.7284 0
M  V30 40 Pb -1.8390 4.4014 2.2291 0
M  V30 41 Pd -4.4689 3.8083 -2.2939 0
M  V30 42 Pb -4.6148 4.7876 -2.3645 0
M  V30 43 Pb -4.2978 2.8234 -2.2593 0
M  V30 44 Pb -4.8485 3.8735 -1.3725 0
M  V30 45 Pb -3.8921 3.8743 -3.1099 0
M  V30 46 Ag -5.1064 -2.7846 -0.9428 0
M  V30 47 Fe -3.9309 -4.3232 -2.3150 0
M  V30 48 Ag -2.4741 -5.7376 -3.5435 0
M  V30 49 Ag 4.3717 -1.5975 4.2915 0
M  V30 50 Fe 4.1055 0.4604 3.1328 0
M  V30 51 Ag 3.8535 2.5773 2.0828 0
M  V30 52 Ag 4.1722 -5.0721 4.1940 0
M  V30 53 Fe 2.3376 -6.5633 4.0311 0
M  V30 54 Ag 0.2631 -7.6972 3.8703 0
M  V30 55 Ag 0.3607 6.9391 -3.3402 0
M  V30 56 Fe -1.4276 5.4187 -3.7213 0
M  V30 57 Ag -3.3573 4.0331 -3.6142 0
M  V30 58 Ag -0.9513 8.4253 -2.2033 0
M  V30 59 Fe -2.9840 7.2353 -2.3554 0
M  V30 60 Ag -4.6109 5.5264 -2.4170 0
M  V30 61 Ag 3.2716 -2.3345 -4.5791 0
M  V30 62 Fe 1.2247 -3.3396 -5.1617 0
M  V30 63 Ag -0.5656 -4.8481 -4.9194 0
M  V30 64 Ag 3.0433 -3.4947 5.3815 0
M  V30 65 Fe 1.0237 -4.7465 5.4047 0
M  V30 66 Ag -0.8765 -6.1350 5.0769 0
M  V30 67 Ag 5.2058 -3.1988 -1.8295 0
M  V30 68 Fe 5.4005 -3.3302 0.5321 0
M  V30 69 Ag 5.4517 -3.4302 2.9025 0
M  V30 70 Ag -5.0516 -2.7647 1.4905 0
M  V30 71 Fe -4.0837 -4.6042 2.6377 0
M  V30 72 Ag -2.9535 -6.4091 3.6873 0
M  V30 73 Ag -4.0268 -0.4725 1.4152 0
M  V30 74 Fe -3.0225 1.6149 1.9382 0
M  V30 75 Ag -2.0222 3.7079 2.4465 0
M  V30 76 Ag -1.5702 -8.0220 2.2696 0
M  V30 77 Fe -1.2890 -7.6499 -0.0606 0
M  V30 78 Ag -0.9837 -7.1758 -2.3692 0
M  V30 79 Ag 4.8912 -1.1669 -2.9547 0
M  V30 80 Fe 4.7156 0.8330 -1.6826 0
M  V30 81 Ag 4.5047 2.8153 -0.3886 0
M  V30 82 Ba 2.2904 7.2775 -1.6891 0
M  V30 83 Ga 2.9655 6.1761 -0.9732 0
M  V30 84 Ba 3.7415 5.1115 -0.3059 0
M  V30 85 Ba 2.7495 4.6693 2.0105 0
M  V30 86 Ga 1.3381 5.0167 2.2735 0
M  V30 87 Ba -0.0507 5.3973 2.6018 0
M  V30 88 Ba 3.5179 -4.4021 -3.3853 0
M  V30 89 Ga 2.2281 -5.1602 -3.4933 0
M  V30 90 Ba 1.0309 -6.0564 -3.6097 0
M  V30 91 Ba 0.3667 8.5164 -0.3355 0
M  V30 92 Ga -0.4388 7.7881 0.6716 0
M  V30 93 Ba -1.2507 7.0240 1.6469 0
M  V30 94 Ba -3.3743 5.2041 1.5013 0
M  V30 95 Ga -4.2163 4.6329 0.4210 0
M  V30 96 Ba -5.0439 4.0685 -0.6737 0
M  V30 97 Ba -4.2441 -0.5742 -1.0933 0
M  V30 98 Ga -4.2279 0.7963 -1.6383 0
M  V30 99 Ba -4.1255 2.0962 -2.3276 0
M  V30 END ATOM
M  V30 BEGIN BOND
M  V30 1 1 1 2
M  V30 2 1 1 3
M  V30 3 1 1 4
M  V30 4 1 1 5
M  V30 5 1 6 7
M  V30 6 1 6 8
M  V30 7 1 6 9
M  V30 8 1 6 10
M  V30 9 1 11 12
M  V30 10 1 11 13
M  V30 11 1 11 14
M  V30 12 1 11 15
M  V30 13 1 16 17
M  V30 14 1 16 18
M  V30 15 1 16 19
M  V30 16 1 16 20
M  V30 17 1 21 22
M  V30 18 1 21 23
M  V30 19 1 21 24
M  V30 20 1 21 25
M  V30 21 1 26 27
M  V30 22 1 26 28
M  V30 23 1 26 29
M  V30 24 1 26 30
M  V30 25 1 31 32
M  V30 26 1 31 33
M  V30 27 1 31 34
M  V30 28 1 31 35
M  V30 29 1 36 37
M  V30 30 1 36 38
M  V30 31 1 36 39
M  V30 32 1 36 40
M  V30 33 1 41 42
M  V30 34 1 41 43
M  V30 35 1 41 44
M  V30 36 1 41 45
M  V30 37 1 46 47
M  V30 38 1 47 48
M  V30 39 1 49 50
M  V30 40 1 50 51
M  V30 41 1 52 53
M  V30 42 1 53 54
M  V30 43 1 55 56
M  V30 44 1 56 57
M  V30 45 1 58 59
M  V30 46 1 59 60
M  V30 47 1 61 62
M  V30 48 1 62 63
M  V30 49 1 64 65
M  V30 50 1 65 66
M  V30 51 1 67 68
M  V30 52 1 68 69
M  V30 53 1 70 71
M  V30 54 1 71 72
M  V30 55 1 73 74
M  V30 56 1 74 75
M  V30 57 1 76 77
M  V30 58 1 77 78
M  V30 59 1 79 80
M  V30 60 1 80 81
M  V30 61 1 82 83
M  V30 62 1 83 84
M  V30 63 1 85 86
M  V30 64 1 86 87
M  V30 65 1 88 89
M  V30 66 1 89 90
M  V30 67 1 91 92
M  V30 68 1 92 93
M  V30 69 1 94 95
M  V30 70 1 95 96
M  V30 71 1 97 98
M  V30 72 1 98 99
M  V30 73 1 2 46
M  V30 74 1 3 97
M  V30 75 1 4 70
M  V30 76 1 5 73
M  V30 77 1 7 82
M  V30 78 1 8 58
M  V30 79 1 9 91
M  V30 80 1 10 55
M  V30 81 1 12 61
M  V30 82 1 13 79
M  V30 83 1 14 67
M  V30 84 1 15 88
M  V30 85 1 17 69
M  V30 86 1 18 52
M  V30 87 1 19 49
M  V30 88 1 20 64
M  V30 89 1 22 84
M  V30 90 1 23 81
M  V30 91 1 24 51
M  V30 92 1 25 85
M  V30 93 1 27 54
M  V30 94 1 28 76
M  V30 95 1 29 72
M  V30 96 1 30 66
M  V30 97 1 32 48
M  V30 98 1 33 78
M  V30 99 1 34 90
M  V30 100 1 35 63
M  V30 101 1 37 87
M  V30 102 1 38 94
M  V30 103 1 39 93
M  V30 104 1 40 75
M  V30 105 1 42 60
M  V30 106 1 43 99
M  V30 107 1 44 96
M  V30 108 1 45 57
M  V30 END BOND
M  V30 END CTAB
M  END

$$$$
