
     RDKit          3D

  0  0  0  0  0  0  0  0  0  0999 V3000
M  V30 BEGIN CTAB
M  V30 COUNTS 99 108 0 0 0
M  V30 BEGIN ATOM
M  V30 1 Pd -2.1085 1.7277 -3.2418 0
M  V30 2 Pb -2.3037 0.9002 -3.7662 0
M  V30 3 Pb -1.8531 2.5574 -2.7382 0
M  V30 4 Pb -1.6424 2.0850 -4.0491 0
M  V30 5 Pb -2.4640 1.2632 -2.4292 0
M  V30 6 Pd -3.6266 5.6443 4.8374 0
M  V30 7 Pb -2.8669 5.1492 5.2569 0
M  V30 8 Pb -4.3757 6.1331 4.3937 0
M  V30 9 Pb -4.2726 5.0161 5.2791 0
M  V30 10 Pb -2.9879 6.2511 4.3548 0
M  V30 11 Pd 2.7453 -5.9400 -0.1329 0
M  V30 12 Pb 1.8515 -5.9892 -0.5726 0
M  V30 13 Pb 2.2971 -5.7965 0.7506 0
M  V30 14 Pb 3.6361 -5.8914 0.3220 0
M  V30 15 Pb 3.1760 -6.0682 -1.0314 0
M  V30 16 Pd 6.1891 -2.0424 0.4858 0
M  V30 17 Pb 6.2274 -2.9582 0.8821 0
M  V30 18 Pb 6.0995 -1.1565 0.0295 0
M  V30 19 Pb 5.8683 -1.6595 1.3522 0
M  V30 20 Pb 6.4608 -2.4146 -0.3992 0
M  V30 21 Pd 0.1995 -1.0120 5.2790 0
M  V30 22 Pb 0.1176 -0.0659 5.5904 0
M  V30 23 Pb 0.2866 -1.9575 4.9622 0
M  V30 24 Pb 1.1600 -0.8544 5.0460 0
M  V30 25 Pb -0.7553 -1.1714 5.5382 0
M  V30 26 Pd 4.0789 -0.4575 -6.1540 0
M  V30 27 Pb 4.3988 0.1460 -5.4231 0
M  V30 28 Pb 3.7244 -1.1326 -6.7995 0
M  V30 29 Pb 3.3814 0.2101 -6.4149 0
M  V30 30 Pb 4.7449 -1.1252 -5.8288 0
M  V30 31 Pd 1.1429 -4.7132 -5.0464 0
M  V30 32 Pb 0.3129 -4.2099 -5.2807 0
M  V30 33 Pb 1.5890 -4.3583 -5.8722 0
M  V30 34 Pb 1.9796 -5.1762 -4.7437 0
M  V30 35 Pb 0.6733 -5.0703 -4.2413 0
M  V30 36 Pd -4.9798 0.6031 3.8374 0
M  V30 37 Pb -4.5168 0.0374 4.5225 0
M  V30 38 Pb -5.4411 1.1246 3.1229 0
M  V30 39 Pb -5.3071 1.2271 4.5497 0
M  V30 40 Pb -4.6054 0.0646 3.0873 0
M  V30 41 Pd -3.6518 6.3184 0.0553 0
M  V30 42 Pb -4.3656 6.7188 0.6269 0
M  V30 43 Pb -2.9202 5.8757 -0.4671 0
M  V30 44 Pb -4.3318 5.6703 -0.2680 0
M  V30 45 Pb -2.9804 6.8606 0.5578 0
M  V30 46 Ag -2.3023 4.7612 5.5600 0
M  V30 47 Fe -1.1091 2.7142 5.7085 0
M  V30 48 Ag 0.0486 0.6444 5.8189 0
M  V30 49 Ag -2.3938 0.2763 -4.1704 0
M  V30 50 Fe -1.4263 -1.7851 -4.8393 0
M  V30 51 Ag -0.3035 -3.8009 -5.3948 0
M  V30 52 Ag 5.6004 -1.3712 1.9907 0
M  V30 53 Fe 3.7500 -1.0508 3.4455 0
M  V30 54 Ag 1.8847 -0.7435 4.8840 0
M  V30 55 Ag 6.0100 -0.5465 -0.3988 0
M  V30 56 Fe 5.3497 0.1394 -2.5754 0
M  V30 57 Ag 4.6398 0.5091 -4.8122 0
M  V30 58 Ag 6.6092 -2.6374 -1.0971 0
M  V30 59 Fe 6.0234 -2.2357 -3.3597 0
M  V30 60 Ag 5.2220 -1.5954 -5.4978 0
M  V30 61 Ag -1.2193 2.2524 -4.6433 0
M  V30 62 Fe 0.7941 1.5870 -5.7103 0
M  V30 63 Ag 2.8372 0.7102 -6.5427 0
M  V30 64 Ag -2.6722 0.8184 -1.8596 0
M  V30 65 Fe -3.5003 0.2854 0.3015 0
M  V30 66 Ag -4.3336 -0.2411 2.4623 0
M  V30 67 Ag -5.7243 1.4742 2.5255 0
M  V30 68 Fe -5.4473 3.2497 0.9809 0
M  V30 69 Ag -4.8470 5.1371 -0.3186 0
M  V30 70 Ag 1.9522 -5.6808 1.4077 0
M  V30 71 Fe 1.1561 -4.1802 3.0691 0
M  V30 72 Ag 0.3672 -2.6635 4.7194 0
M  V30 73 Ba -1.4638 -1.2893 5.7610 0
M  V30 74 Ga -2.8148 -0.8318 5.3752 0
M  V30 75 Ba -4.1877 -0.4071 5.0319 0
M  V30 76 Ba 3.4765 -6.1629 -1.7173 0
M  V30 77 Ga 3.0463 -5.8417 -3.0974 0
M  V30 78 Ba 2.5960 -5.5110 -4.4688 0
M  V30 79 Ba -2.5379 6.7047 3.9536 0
M  V30 80 Ga -2.4731 6.9981 2.5059 0
M  V30 81 Ba -2.5176 7.1972 1.0417 0
M  V30 82 Ba -4.8961 6.5078 4.0080 0
M  V30 83 Ga -4.9575 6.7824 2.5633 0
M  V30 84 Ba -4.8809 6.9732 1.1058 0
M  V30 85 Ba 1.1869 -6.0219 -0.9129 0
M  V30 86 Ga 0.7352 -5.6847 -2.2723 0
M  V30 87 Ba 0.3173 -5.3377 -3.6400 0
M  V30 88 Ba 4.2903 -5.8466 0.6888 0
M  V30 89 Ga 5.2721 -4.7710 0.9245 0
M  V30 90 Ba 6.2251 -3.6643 1.1314 0
M  V30 91 Ba -4.7534 4.5326 5.6002 0
M  V30 92 Ga -5.1475 3.1301 5.3437 0
M  V30 93 Ba -5.5256 1.7269 5.0677 0
M  V30 94 Ba -1.5917 3.1874 -2.4178 0
M  V30 95 Ga -2.0306 4.3485 -1.6150 0
M  V30 96 Ba -2.3373 5.5553 -0.8177 0
M  V30 97 Ba 3.4581 -1.6878 -7.2264 0
M  V30 98 Ga 2.6731 -2.8912 -6.8834 0
M  V30 99 Ba 1.8889 -4.0853 -6.5072 0
M  V30 END ATOM
M  V30 BEGIN BOND
M  V30 1 1 1 2
M  V30 2 1 1 3
M  V30 3 1 1 4
M  V30 4 1 1 5
M  V30 5 1 6 7
M  V30 6 1 6 8
M  V30 7 1 6 9
M  V30 8 1 6 10
M  V30 9 1 11 12
M  V30 10 1 11 13
M  V30 11 1 11 14
M  V30 12 1 11 15
M  V30 13 1 16 17
M  V30 14 1 16 18
M  V30 15 1 16 19
M  V30 16 1 16 20
M  V30 17 1 21 22
M  V30 18 1 21 23
M  V30 19 1 21 24
M  V30 20 1 21 25
M  V30 21 1 26 27
M  V30 22 1 26 28
M  V30 23 1 26 29
M  V30 24 1 26 30
M  V30 25 1 31 32
M  V30 26 1 31 33
M  V30 27 1 31 34
M  V30 28 1 31 35
M  V30 29 1 36 37
M  V30 30 1 36 38
M  V30 31 1 36 39
M  V30 32 1 36 40
M  V30 33 1 41 42
M  V30 34 1 41 43
M  V30 35 1 41 44
M  V30 36 1 41 45
M  V30 37 1 46 47
M  V30 38 1 47 48
M  V30 39 1 49 50
M  V30 40 1 50 51
M  V30 41 1 52 53
M  V30 42 1 53 54
M  V30 43 1 55 56
M  V30 44 1 56 57
M  V30 45 1 58 59
M  V30 46 1 59 60
M  V30 47 1 61 62
M  V30 48 1 62 63
M  V30 49 1 64 65
M  V30 50 1 65 66
M  V30 51 1 67 68
M  V30 52 1 68 69
M  V30 53 1 70 71
M  V30 54 1 71 72
M  V30 55 1 73 74
M  V30 56 1 74 75
M  V30 57 1 76 77
M  V30 58 1 77 78
M  V30 59 1 79 80
M  V30 60 1 80 81
M  V30 61 1 82 83
M  V30 62 1 83 84
M  V30 63 1 85 86
M  V30 64 1 86 87
M  V30 65 1 88 89
M  V30 66 1 89 90
M  V30 67 1 91 92
M  V30 68 1 92 93
M  V30 69 1 94 95
M  V30 70 1 95 96
M  V30 71 1 97 98
M  V30 72 1 98 99
M  V30 73 1 2 49
M  V30 74 1 3 94
M  V30 75 1 4 61
M  V30 76 1 5 64
M  V30 77 1 7 46
M  V30 78 1 8 82
M  V30 79 1 9 91
M  V30 80 1 10 79
M  V30 81 1 12 85
M  V30 82 1 13 70
M  V30 83 1 14 88
M  V30 84 1 15 76
M  V30 85 1 17 90
M  V30 86 1 18 55
M  V30 87 1 19 52
M  V30 88 1 20 58
M  V30 89 1 22 48
M  V30 90 1 23 72
M  V30 91 1 24 54
M  V30 92 1 25 73
M  V30 93 1 27 57
M  V30 94 1 28 97
M  V30 95 1 29 63
M  V30 96 1 30 60
M  V30 97 1 32 51
M  V30 98 1 33 99
M  V30 99 1 34 78
M  V30 100 1 35 87
M  V30 101 1 37 75
M  V30 102 1 38 67
M  V30 103 1 39 93
M  V30 104 1 40 66
M  V30 105 1 42 84
M  V30 106 1 43 96
M  V30 107 1 44 69
M  V30 108 1 45 81
M  V30 END BOND
M  V30 END CTAB
M  END

$$$$
