
     RDKit          3D

  0  0  0  0  0  0  0  0  0  0999 V3000
M  V30 BEGIN CTAB
M  V30 COUNTS 99 108 0 0 0
M  V30 BEGIN ATOM
M  V30 1 Pd -1.1025 2.6233 2.8559 0
M  V30 2 Pb -1.9148 2.5677 2.2758 0
M  V30 3 Pb -1.4971 3.4202 3.3191 0
M  V30 4 Pb -0.7364 1.8362 2.3608 0
M  V30 5 Pb -0.2624 2.6564 3.4017 0
M  V30 6 Pd 1.7898 -2.3610 3.3392 0
M  V30 7 Pb 2.2929 -3.0468 3.8640 0
M  V30 8 Pb 2.6425 -2.1291 2.8732 0
M  V30 9 Pb 1.2976 -1.7300 2.7393 0
M  V30 10 Pb 0.9353 -2.6936 3.7371 0
M  V30 11 Pd 3.4279 -5.7587 0.8618 0
M  V30 12 Pb 3.1271 -5.5826 -0.0760 0
M  V30 13 Pb 3.9848 -4.9296 0.8253 0
M  V30 14 Pb 2.8004 -6.5294 0.9622 0
M  V30 15 Pb 3.6583 -5.8412 1.8298 0
M  V30 16 Pd -4.4339 -1.7774 -2.3453 0
M  V30 17 Pb -4.3605 -2.6508 -2.8128 0
M  V30 18 Pb -4.4377 -1.3177 -3.2325 0
M  V30 19 Pb -4.4006 -2.2581 -1.4508 0
M  V30 20 Pb -4.4991 -0.9030 -1.8638 0
M  V30 21 Pd 2.6344 0.2940 -3.2062 0
M  V30 22 Pb 2.9270 1.2451 -3.0892 0
M  V30 23 Pb 2.1766 0.5168 -4.0716 0
M  V30 24 Pb 2.4072 -0.6759 -3.3053 0
M  V30 25 Pb 3.0765 0.0697 -2.3372 0
M  V30 26 Pd -1.8523 -5.7727 1.3478 0
M  V30 27 Pb -2.5701 -5.0773 1.1645 0
M  V30 28 Pb -2.0494 -6.1978 0.4719 0
M  V30 29 Pb -1.1409 -6.4634 1.4879 0
M  V30 30 Pb -1.6754 -5.3322 2.2317 0
M  V30 31 Pd -2.0672 7.1216 0.8334 0
M  V30 32 Pb -1.6772 7.2306 -0.0776 0
M  V30 33 Pb -1.2024 7.4302 1.2163 0
M  V30 34 Pb -2.8592 6.6970 0.3932 0
M  V30 35 Pb -2.3800 6.8790 1.7511 0
M  V30 36 Pd 3.6887 3.1159 1.1520 0
M  V30 37 Pb 3.5132 4.0771 1.3511 0
M  V30 38 Pb 3.8533 2.1512 0.9519 0
M  V30 39 Pb 3.4335 2.9126 2.0982 0
M  V30 40 Pb 3.8365 3.3268 0.1840 0
M  V30 41 Pd -2.0683 2.6395 -4.7512 0
M  V30 42 Pb -2.6464 1.8602 -4.9922 0
M  V30 43 Pb -2.8039 3.0366 -4.1975 0
M  V30 44 Pb -1.5423 3.4604 -4.5400 0
M  V30 45 Pb -1.2924 2.2382 -5.2432 0
M  V30 46 Ag -1.3676 7.1919 -0.7561 0
M  V30 47 Fe -1.1980 5.7558 -2.6354 0
M  V30 48 Ag -1.2359 4.1142 -4.3463 0
M  V30 49 Ag -4.2425 -3.3446 -3.0412 0
M  V30 50 Fe -3.2755 -5.2051 -1.9679 0
M  V30 51 Ag -2.2492 -6.3949 -0.2130 0
M  V30 52 Ag 2.8855 -5.3603 -0.7510 0
M  V30 53 Fe 2.5457 -3.4546 -2.1290 0
M  V30 54 Ag 2.2957 -1.4184 -3.3280 0
M  V30 55 Ag -0.5021 7.5413 1.4427 0
M  V30 56 Fe 1.5214 6.3156 1.5596 0
M  V30 57 Ag 3.3254 4.7804 1.5182 0
M  V30 58 Ag -2.4984 2.4937 1.8109 0
M  V30 59 Fe -3.5605 1.1548 0.1618 0
M  V30 60 Ag -4.5359 -0.2619 -1.4759 0
M  V30 61 Ag -3.3624 6.3247 -0.0220 0
M  V30 62 Fe -3.4834 4.8387 -1.8739 0
M  V30 63 Ag -3.2944 3.3702 -3.7342 0
M  V30 64 Ba -1.8336 4.0208 3.6239 0
M  V30 65 Ga -2.2069 5.3415 3.0770 0
M  V30 66 Ba -2.5367 6.6341 2.4424 0
M  V30 67 Ba -4.4256 -1.0021 -3.9120 0
M  V30 68 Ga -3.7577 0.1553 -4.5353 0
M  V30 69 Ba -3.1069 1.3034 -5.1928 0
M  V30 70 Ba 0.3925 2.6411 3.7722 0
M  V30 71 Ga 1.7980 2.7184 3.3215 0
M  V30 72 Ba 3.1768 2.8049 2.7960 0
M  V30 73 Ba -4.4119 -2.5918 -0.7620 0
M  V30 74 Ga -3.7084 -3.5977 0.0887 0
M  V30 75 Ba -3.1300 -4.5642 1.0691 0
M  V30 76 Ba 0.3108 -3.0058 4.0107 0
M  V30 77 Ga -0.6416 -3.9886 3.4539 0
M  V30 78 Ba -1.5873 -4.9728 2.8881 0
M  V30 79 Ba 3.2767 -2.0566 2.4818 0
M  V30 80 Ga 3.8950 -3.0955 1.6405 0
M  V30 81 Ba 4.3337 -4.2678 0.8640 0
M  V30 82 Ba 1.8367 0.6787 -4.7251 0
M  V30 83 Ga 0.5666 1.3082 -5.1494 0
M  V30 84 Ba -0.6985 1.9349 -5.5922 0
M  V30 85 Ba 2.6874 -3.6038 4.1725 0
M  V30 86 Ga 3.2754 -4.7549 3.4676 0
M  V30 87 Ba 3.7707 -5.8105 2.5689 0
M  V30 88 Ba 3.3981 -0.1009 -1.6810 0
M  V30 89 Ga 3.6930 0.6523 -0.4482 0
M  V30 90 Ba 3.9737 1.4350 0.7694 0
M  V30 91 Ba -0.4930 1.2569 1.9526 0
M  V30 92 Ga 0.2374 -0.0091 2.1489 0
M  V30 93 Ba 0.9563 -1.2938 2.2333 0
M  V30 94 Ba 3.1914 1.9403 -2.9773 0
M  V30 95 Ga 3.5464 2.7202 -1.7731 0
M  V30 96 Ba 3.8921 3.4758 -0.5508 0
M  V30 97 Ba 2.3034 -7.0724 1.1030 0
M  V30 98 Ga 0.8434 -7.0529 1.3176 0
M  V30 99 Ba -0.6165 -7.0005 1.5283 0
M  V30 END ATOM
M  V30 BEGIN BOND
M  V30 1 1 1 2
M  V30 2 1 1 3
M  V30 3 1 1 4
M  V30 4 1 1 5
M  V30 5 1 6 7
M  V30 6 1 6 8
M  V30 7 1 6 9
M  V30 8 1 6 10
M  V30 9 1 11 12
M  V30 10 1 11 13
M  V30 11 1 11 14
M  V30 12 1 11 15
M  V30 13 1 16 17
M  V30 14 1 16 18
M  V30 15 1 16 19
M  V30 16 1 16 20
M  V30 17 1 21 22
M  V30 18 1 21 23
M  V30 19 1 21 24
M  V30 20 1 21 25
M  V30 21 1 26 27
M  V30 22 1 26 28
M  V30 23 1 26 29
M  V30 24 1 26 30
M  V30 25 1 31 32
M  V30 26 1 31 33
M  V30 27 1 31 34
M  V30 28 1 31 35
M  V30 29 1 36 37
M  V30 30 1 36 38
M  V30 31 1 36 39
M  V30 32 1 36 40
M  V30 33 1 41 42
M  V30 34 1 41 43
M  V30 35 1 41 44
M  V30 36 1 41 45
M  V30 37 1 46 47
M  V30 38 1 47 48
M  V30 39 1 49 50
M  V30 40 1 50 51
M  V30 41 1 52 53
M  V30 42 1 53 54
M  V30 43 1 55 56
M  V30 44 1 56 57
M  V30 45 1 58 59
M  V30 46 1 59 60
M  V30 47 1 61 62
M  V30 48 1 62 63
M  V30 49 1 64 65
M  V30 50 1 65 66
M  V30 51 1 67 68
M  V30 52 1 68 69
M  V30 53 1 70 71
M  V30 54 1 71 72
M  V30 55 1 73 74
M  V30 56 1 74 75
M  V30 57 1 76 77
M  V30 58 1 77 78
M  V30 59 1 79 80
M  V30 60 1 80 81
M  V30 61 1 82 83
M  V30 62 1 83 84
M  V30 63 1 85 86
M  V30 64 1 86 87
M  V30 65 1 88 89
M  V30 66 1 89 90
M  V30 67 1 91 92
M  V30 68 1 92 93
M  V30 69 1 94 95
M  V30 70 1 95 96
M  V30 71 1 97 98
M  V30 72 1 98 99
M  V30 73 1 2 58
M  V30 74 1 3 64
M  V30 75 1 4 91
M  V30 76 1 5 70
M  V30 77 1 7 85
M  V30 78 1 8 79
M  V30 79 1 9 93
M  V30 80 1 10 76
M  V30 81 1 12 52
M  V30 82 1 13 81
M  V30 83 1 14 97
M  V30 84 1 15 87
M  V30 85 1 17 49
M  V30 86 1 18 67
M  V30 87 1 19 73
M  V30 88 1 20 60
M  V30 89 1 22 94
M  V30 90 1 23 82
M  V30 91 1 24 54
M  V30 92 1 25 88
M  V30 93 1 27 75
M  V30 94 1 28 51
M  V30 95 1 29 99
M  V30 96 1 30 78
M  V30 97 1 32 46
M  V30 98 1 33 55
M  V30 99 1 34 61
M  V30 100 1 35 66
M  V30 101 1 37 57
M  V30 102 1 38 90
M  V30 103 1 39 72
M  V30 104 1 40 96
M  V30 105 1 42 69
M  V30 106 1 43 63
M  V30 107 1 44 48
M  V30 108 1 45 84
M  V30 END BOND
M  V30 END CTAB
M  END

$$$$
