
     RDKit          3D

  0  0  0  0  0  0  0  0  0  0999 V3000
M  V30 BEGIN CTAB
M  V30 COUNTS 99 108 0 0 0
M  V30 BEGIN ATOM
M  V30 1 Pd 0.9715 2.8939 -3.1096 0
M  V30 2 Pb 1.2452 2.1415 -3.7113 0
M  V30 3 Pb 0.1604 2.9586 -3.6787 0
M  V30 4 Pb 1.8417 2.8808 -2.6109 0
M  V30 5 Pb 0.6173 3.6208 -2.5149 0
M  V30 6 Pd 6.6490 1.7443 2.4780 0
M  V30 7 Pb 7.1160 1.4400 3.3073 0
M  V30 8 Pb 5.9793 2.2054 3.0595 0
M  V30 9 Pb 6.1982 2.0591 1.6397 0
M  V30 10 Pb 7.2366 1.1414 1.9428 0
M  V30 11 Pd 4.5501 -1.1168 5.4509 0
M  V30 12 Pb 3.6694 -1.3638 5.0570 0
M  V30 13 Pb 4.2869 -0.1501 5.4826 0
M  V30 14 Pb 4.8536 -2.0576 5.3016 0
M  V30 15 Pb 5.4624 -0.8530 5.7487 0
M  V30 16 Pd 0.9166 -2.3183 -2.5484 0
M  V30 17 Pb 1.6748 -1.7388 -2.2659 0
M  V30 18 Pb 0.1774 -2.9147 -2.8808 0
M  V30 19 Pb 0.9859 -2.8221 -1.6830 0
M  V30 20 Pb 0.9379 -1.7949 -3.3985 0
M  V30 21 Pd -3.1730 -0.6698 3.5126 0
M  V30 22 Pb -2.9262 0.3095 3.3855 0
M  V30 23 Pb -3.4037 -1.6380 3.4573 0
M  V30 24 Pb -2.2169 -0.9492 3.5092 0
M  V30 25 Pb -4.1361 -0.4293 3.5030 0
M  V30 26 Pd 4.9990 -2.7434 0.9190 0
M  V30 27 Pb 4.0612 -3.1072 0.8986 0
M  V30 28 Pb 4.7570 -2.0956 0.2041 0
M  V30 29 Pb 5.2220 -3.3259 1.7021 0
M  V30 30 Pb 5.9302 -2.3729 0.8951 0
M  V30 31 Pd -6.4150 1.7808 -4.0563 0
M  V30 32 Pb -6.2892 0.8175 -4.3565 0
M  V30 33 Pb -6.4361 2.7245 -3.7210 0
M  V30 34 Pb -7.1696 1.4953 -3.4747 0
M  V30 35 Pb -5.6361 2.0535 -4.6056 0
M  V30 36 Pd -3.7258 4.0305 -0.0954 0
M  V30 37 Pb -4.2140 4.4245 -0.8778 0
M  V30 38 Pb -4.6113 3.7196 0.2276 0
M  V30 39 Pb -2.8350 4.3919 -0.3967 0
M  V30 40 Pb -3.2924 3.6141 0.7298 0
M  V30 41 Pd -4.7777 -3.6192 -2.4458 0
M  V30 42 Pb -3.8823 -3.8492 -2.8408 0
M  V30 43 Pb -5.6627 -3.3959 -2.0498 0
M  V30 44 Pb -5.0305 -3.0530 -3.2493 0
M  V30 45 Pb -4.5586 -4.0988 -1.5983 0
M  V30 46 Ag -0.4140 2.9909 -4.1495 0
M  V30 47 Fe -2.7075 2.6565 -4.6233 0
M  V30 48 Ag -5.0194 2.2771 -4.9501 0
M  V30 49 Ag 3.0440 -1.5647 4.7031 0
M  V30 50 Fe 0.7502 -1.3324 4.1506 0
M  V30 51 Ag -1.5266 -1.2325 3.4974 0
M  V30 52 Ag -3.5350 -2.3469 3.2635 0
M  V30 53 Fe -3.9940 -3.5672 1.2834 0
M  V30 54 Ag -4.4424 -4.3576 -0.9065 0
M  V30 55 Ag -7.6305 1.1231 -3.0307 0
M  V30 56 Fe -7.3888 -1.0501 -2.1524 0
M  V30 57 Ag -6.3071 -3.1164 -1.8107 0
M  V30 58 Ag -4.8127 -0.1561 3.3890 0
M  V30 59 Fe -5.5205 1.6329 2.0353 0
M  V30 60 Ag -5.2125 3.4224 0.5388 0
M  V30 61 Ag 2.5205 2.9242 -2.2880 0
M  V30 62 Fe 4.1453 2.5621 -0.5900 0
M  V30 63 Ag 5.9017 2.2998 0.9914 0
M  V30 64 Ba -6.1631 0.1076 -4.6165 0
M  V30 65 Ga -5.7032 -1.2417 -4.1673 0
M  V30 66 Ba -5.2595 -2.6323 -3.8459 0
M  V30 67 Ba 2.2617 -1.3085 -2.1042 0
M  V30 68 Ga 3.4147 -1.4347 -1.2043 0
M  V30 69 Ba 4.5594 -1.5809 -0.2968 0
M  V30 70 Ba -0.3394 -3.3851 -3.1692 0
M  V30 71 Ga -1.7926 -3.6707 -3.1161 0
M  V30 72 Ba -3.2239 -4.0533 -3.1490 0
M  V30 73 Ba 0.3278 4.1668 -2.0829 0
M  V30 74 Ga -0.9350 4.3958 -1.3408 0
M  V30 75 Ba -2.1672 4.7010 -0.5755 0
M  V30 76 Ba 1.0849 -3.1788 -1.0260 0
M  V30 77 Ga 2.2189 -3.2806 -0.0768 0
M  V30 78 Ba 3.3562 -3.3787 0.8688 0
M  V30 79 Ba 7.6184 0.6066 1.5851 0
M  V30 80 Ga 7.1621 -0.7397 1.1889 0
M  V30 81 Ba 6.6132 -2.0629 0.8333 0
M  V30 82 Ba -6.3534 3.4377 -3.4957 0
M  V30 83 Ga -5.5132 4.0815 -2.4617 0
M  V30 84 Ba -4.6619 4.6965 -1.4193 0
M  V30 85 Ba 5.4595 2.4339 3.5497 0
M  V30 86 Ga 4.7514 1.5845 4.5291 0
M  V30 87 Ba 4.1473 0.5879 5.4371 0
M  V30 88 Ba 7.4316 1.1958 3.9411 0
M  V30 89 Ga 6.8802 0.3023 4.9690 0
M  V30 90 Ba 6.1514 -0.5986 5.8717 0
M  V30 91 Ba 1.3457 1.5749 -4.1957 0
M  V30 92 Ga 1.2048 0.1070 -4.1194 0
M  V30 93 Ba 1.0571 -1.3568 -3.9947 0
M  V30 94 Ba -2.7158 1.0382 3.2638 0
M  V30 95 Ga -2.8929 2.1503 2.2753 0
M  V30 96 Ba -2.9745 3.3486 1.3793 0
M  V30 97 Ba 5.0800 -2.7436 5.1004 0
M  V30 98 Ga 5.2458 -3.2942 3.7413 0
M  V30 99 Ba 5.3656 -3.7112 2.3306 0
M  V30 END ATOM
M  V30 BEGIN BOND
M  V30 1 1 1 2
M  V30 2 1 1 3
M  V30 3 1 1 4
M  V30 4 1 1 5
M  V30 5 1 6 7
M  V30 6 1 6 8
M  V30 7 1 6 9
M  V30 8 1 6 10
M  V30 9 1 11 12
M  V30 10 1 11 13
M  V30 11 1 11 14
M  V30 12 1 11 15
M  V30 13 1 16 17
M  V30 14 1 16 18
M  V30 15 1 16 19
M  V30 16 1 16 20
M  V30 17 1 21 22
M  V30 18 1 21 23
M  V30 19 1 21 24
M  V30 20 1 21 25
M  V30 21 1 26 27
M  V30 22 1 26 28
M  V30 23 1 26 29
M  V30 24 1 26 30
M  V30 25 1 31 32
M  V30 26 1 31 33
M  V30 27 1 31 34
M  V30 28 1 31 35
M  V30 29 1 36 37
M  V30 30 1 36 38
M  V30 31 1 36 39
M  V30 32 1 36 40
M  V30 33 1 41 42
M  V30 34 1 41 43
M  V30 35 1 41 44
M  V30 36 1 41 45
M  V30 37 1 46 47
M  V30 38 1 47 48
M  V30 39 1 49 50
M  V30 40 1 50 51
M  V30 41 1 52 53
M  V30 42 1 53 54
M  V30 43 1 55 56
M  V30 44 1 56 57
M  V30 45 1 58 59
M  V30 46 1 59 60
M  V30 47 1 61 62
M  V30 48 1 62 63
M  V30 49 1 64 65
M  V30 50 1 65 66
M  V30 51 1 67 68
M  V30 52 1 68 69
M  V30 53 1 70 71
M  V30 54 1 71 72
M  V30 55 1 73 74
M  V30 56 1 74 75
M  V30 57 1 76 77
M  V30 58 1 77 78
M  V30 59 1 79 80
M  V30 60 1 80 81
M  V30 61 1 82 83
M  V30 62 1 83 84
M  V30 63 1 85 86
M  V30 64 1 86 87
M  V30 65 1 88 89
M  V30 66 1 89 90
M  V30 67 1 91 92
M  V30 68 1 92 93
M  V30 69 1 94 95
M  V30 70 1 95 96
M  V30 71 1 97 98
M  V30 72 1 98 99
M  V30 73 1 2 91
M  V30 74 1 3 46
M  V30 75 1 4 61
M  V30 76 1 5 73
M  V30 77 1 7 88
M  V30 78 1 8 85
M  V30 79 1 9 63
M  V30 80 1 10 79
M  V30 81 1 12 49
M  V30 82 1 13 87
M  V30 83 1 14 97
M  V30 84 1 15 90
M  V30 85 1 17 67
M  V30 86 1 18 70
M  V30 87 1 19 76
M  V30 88 1 20 93
M  V30 89 1 22 94
M  V30 90 1 23 52
M  V30 91 1 24 51
M  V30 92 1 25 58
M  V30 93 1 27 78
M  V30 94 1 28 69
M  V30 95 1 29 99
M  V30 96 1 30 81
M  V30 97 1 32 64
M  V30 98 1 33 82
M  V30 99 1 34 55
M  V30 100 1 35 48
M  V30 101 1 37 84
M  V30 102 1 38 60
M  V30 103 1 39 75
M  V30 104 1 40 96
M  V30 105 1 42 72
M  V30 106 1 43 57
M  V30 107 1 44 66
M  V30 108 1 45 54
M  V30 END BOND
M  V30 END CTAB
M  END

$$$$
