
     RDKit          3D

  0  0  0  0  0  0  0  0  0  0999 V3000
M  V30 BEGIN CTAB
M  V30 COUNTS 99 108 0 0 0
M  V30 BEGIN ATOM
M  V30 1 Pd 5.4761 1.1741 1.9211 0
M  V30 2 Pb 5.5225 1.5124 0.9815 0
M  V30 3 Pb 5.2599 2.0945 2.2430 0
M  V30 4 Pb 5.7705 0.2626 1.6239 0
M  V30 5 Pb 5.3606 0.8474 2.8598 0
M  V30 6 Pd -3.9996 4.3523 1.5442 0
M  V30 7 Pb -4.0073 3.8108 0.7028 0
M  V30 8 Pb -3.8452 4.8661 2.4032 0
M  V30 9 Pb -4.0921 3.5364 2.1045 0
M  V30 10 Pb -3.8031 5.1797 1.0256 0
M  V30 11 Pd -3.9319 -2.1387 -4.9690 0
M  V30 12 Pb -3.4969 -1.2368 -4.9701 0
M  V30 13 Pb -4.7289 -1.8003 -4.4656 0
M  V30 14 Pb -4.3001 -3.0661 -4.9162 0
M  V30 15 Pb -3.1143 -2.4716 -5.4384 0
M  V30 16 Pd -2.4845 -5.6517 -1.5978 0
M  V30 17 Pb -3.1738 -5.7510 -2.3163 0
M  V30 18 Pb -1.7458 -5.7193 -2.2656 0
M  V30 19 Pb -3.1996 -5.4951 -0.9199 0
M  V30 20 Pb -1.7796 -5.5159 -0.9005 0
M  V30 21 Pd -4.1445 -1.0309 -0.0997 0
M  V30 22 Pb -3.9288 -0.1112 -0.4329 0
M  V30 23 Pb -4.9578 -0.9922 -0.6775 0
M  V30 24 Pb -4.4028 -1.9453 0.2145 0
M  V30 25 Pb -3.2724 -1.1211 0.3883 0
M  V30 26 Pd 4.4574 -3.3773 -1.5179 0
M  V30 27 Pb 3.8287 -3.7979 -2.1713 0
M  V30 28 Pb 5.0315 -3.0747 -2.2781 0
M  V30 29 Pb 5.0888 -2.9865 -0.8455 0
M  V30 30 Pb 3.8307 -3.6748 -0.7979 0
M  V30 31 Pd 3.0401 -0.1024 -5.0972 0
M  V30 32 Pb 3.5211 0.5965 -4.5701 0
M  V30 33 Pb 3.8873 -0.6337 -5.0901 0
M  V30 34 Pb 2.5385 -0.8276 -5.5674 0
M  V30 35 Pb 2.1725 0.3974 -5.0611 0
M  V30 36 Pd 1.1138 0.7136 5.1719 0
M  V30 37 Pb 1.0205 0.0347 4.4463 0
M  V30 38 Pb 1.1418 1.4577 5.8420 0
M  V30 39 Pb 0.1220 0.7940 5.1175 0
M  V30 40 Pb 2.1067 0.5792 5.2308 0
M  V30 41 Pd 0.3732 6.0682 4.6730 0
M  V30 42 Pb -0.6368 6.0542 4.7418 0
M  V30 43 Pb 1.3545 6.0187 4.5070 0
M  V30 44 Pb 0.4839 5.4142 5.4275 0
M  V30 45 Pb 0.2774 6.7202 3.9253 0
M  V30 46 Ag 5.5075 1.7706 0.2777 0
M  V30 47 Fe 4.7397 1.4792 -1.9500 0
M  V30 48 Ag 3.9101 1.0665 -4.1359 0
M  V30 49 Ag -2.6037 -1.2518 0.7106 0
M  V30 50 Fe -0.8648 -0.8579 2.2826 0
M  V30 51 Ag 0.8421 -0.4181 3.8772 0
M  V30 52 Ag -1.1437 -5.7002 -2.7091 0
M  V30 53 Fe 1.1105 -4.9616 -2.7847 0
M  V30 54 Ag 3.3294 -4.1364 -2.6160 0
M  V30 55 Ag -2.4642 -2.6624 -5.7595 0
M  V30 56 Fe -0.1607 -2.1053 -5.9053 0
M  V30 57 Ag 2.0878 -1.3435 -5.8709 0
M  V30 58 Ag -3.4911 5.8072 0.7846 0
M  V30 59 Fe -1.6309 6.8960 1.7388 0
M  V30 60 Ag 0.0890 7.1306 3.3349 0
M  V30 61 Ag -3.0805 -0.6113 -4.9687 0
M  V30 62 Fe -0.8359 0.1708 -5.0011 0
M  V30 63 Ag 1.4825 0.6955 -5.0397 0
M  V30 64 Ag -1.2108 -5.3913 -0.4265 0
M  V30 65 Fe 1.0450 -4.6679 -0.2512 0
M  V30 66 Ag 3.2958 -3.9128 -0.3293 0
M  V30 67 Ag -4.0505 2.9711 2.5859 0
M  V30 68 Fe -2.4361 1.8010 3.8647 0
M  V30 69 Ag -0.6177 0.8140 5.0186 0
M  V30 70 Ag 5.1288 2.7796 2.5156 0
M  V30 71 Fe 3.6429 4.3881 3.4282 0
M  V30 72 Ag 2.0728 5.9219 4.3282 0
M  V30 73 Ba -3.9321 3.4116 0.0711 0
M  V30 74 Ga -3.8917 1.9829 -0.3021 0
M  V30 75 Ba -3.8398 0.5716 -0.7353 0
M  V30 76 Ba -3.7169 -5.3138 -0.4113 0
M  V30 77 Ga -4.1859 -3.9908 0.0383 0
M  V30 78 Ba -4.6031 -2.6342 0.4359 0
M  V30 79 Ba -3.7084 5.2210 3.0647 0
M  V30 80 Ga -2.5311 5.6288 3.8858 0
M  V30 81 Ba -1.3996 6.0632 4.7561 0
M  V30 82 Ba -4.5402 -3.7707 -4.8315 0
M  V30 83 Ga -4.1425 -4.8125 -3.8664 0
M  V30 84 Ba -3.6845 -5.7932 -2.8646 0
M  V30 85 Ba 6.0499 -0.4091 1.4305 0
M  V30 86 Ga 5.7642 -1.5441 0.5281 0
M  V30 87 Ba 5.5754 -2.7304 -0.3329 0
M  V30 88 Ba 5.2418 0.6286 3.5682 0
M  V30 89 Ga 4.0404 0.5413 4.4251 0
M  V30 90 Ba 2.8468 0.4500 5.2924 0
M  V30 91 Ba 1.1146 2.0383 6.3194 0
M  V30 92 Ga 0.8617 3.4873 6.1559 0
M  V30 93 Ba 0.6083 4.9369 5.9988 0
M  V30 94 Ba 5.4062 -2.8472 -2.8862 0
M  V30 95 Ga 5.0102 -1.9402 -3.9796 0
M  V30 96 Ba 4.5270 -1.0201 -5.0260 0
M  V30 97 Ba -5.3168 -1.5684 -4.0588 0
M  V30 98 Ga -5.4693 -1.2553 -2.6253 0
M  V30 99 Ba -5.5122 -0.9656 -1.1797 0
M  V30 END ATOM
M  V30 BEGIN BOND
M  V30 1 1 1 2
M  V30 2 1 1 3
M  V30 3 1 1 4
M  V30 4 1 1 5
M  V30 5 1 6 7
M  V30 6 1 6 8
M  V30 7 1 6 9
M  V30 8 1 6 10
M  V30 9 1 11 12
M  V30 10 1 11 13
M  V30 11 1 11 14
M  V30 12 1 11 15
M  V30 13 1 16 17
M  V30 14 1 16 18
M  V30 15 1 16 19
M  V30 16 1 16 20
M  V30 17 1 21 22
M  V30 18 1 21 23
M  V30 19 1 21 24
M  V30 20 1 21 25
M  V30 21 1 26 27
M  V30 22 1 26 28
M  V30 23 1 26 29
M  V30 24 1 26 30
M  V30 25 1 31 32
M  V30 26 1 31 33
M  V30 27 1 31 34
M  V30 28 1 31 35
M  V30 29 1 36 37
M  V30 30 1 36 38
M  V30 31 1 36 39
M  V30 32 1 36 40
M  V30 33 1 41 42
M  V30 34 1 41 43
M  V30 35 1 41 44
M  V30 36 1 41 45
M  V30 37 1 46 47
M  V30 38 1 47 48
M  V30 39 1 49 50
M  V30 40 1 50 51
M  V30 41 1 52 53
M  V30 42 1 53 54
M  V30 43 1 55 56
M  V30 44 1 56 57
M  V30 45 1 58 59
M  V30 46 1 59 60
M  V30 47 1 61 62
M  V30 48 1 62 63
M  V30 49 1 64 65
M  V30 50 1 65 66
M  V30 51 1 67 68
M  V30 52 1 68 69
M  V30 53 1 70 71
M  V30 54 1 71 72
M  V30 55 1 73 74
M  V30 56 1 74 75
M  V30 57 1 76 77
M  V30 58 1 77 78
M  V30 59 1 79 80
M  V30 60 1 80 81
M  V30 61 1 82 83
M  V30 62 1 83 84
M  V30 63 1 85 86
M  V30 64 1 86 87
M  V30 65 1 88 89
M  V30 66 1 89 90
M  V30 67 1 91 92
M  V30 68 1 92 93
M  V30 69 1 94 95
M  V30 70 1 95 96
M  V30 71 1 97 98
M  V30 72 1 98 99
M  V30 73 1 2 46
M  V30 74 1 3 70
M  V30 75 1 4 85
M  V30 76 1 5 88
M  V30 77 1 7 73
M  V30 78 1 8 79
M  V30 79 1 9 67
M  V30 80 1 10 58
M  V30 81 1 12 61
M  V30 82 1 13 97
M  V30 83 1 14 82
M  V30 84 1 15 55
M  V30 85 1 17 84
M  V30 86 1 18 52
M  V30 87 1 19 76
M  V30 88 1 20 64
M  V30 89 1 22 75
M  V30 90 1 23 99
M  V30 91 1 24 78
M  V30 92 1 25 49
M  V30 93 1 27 54
M  V30 94 1 28 94
M  V30 95 1 29 87
M  V30 96 1 30 66
M  V30 97 1 32 48
M  V30 98 1 33 96
M  V30 99 1 34 57
M  V30 100 1 35 63
M  V30 101 1 37 51
M  V30 102 1 38 91
M  V30 103 1 39 69
M  V30 104 1 40 90
M  V30 105 1 42 81
M  V30 106 1 43 72
M  V30 107 1 44 93
M  V30 108 1 45 60
M  V30 END BOND
M  V30 END CTAB
M  END

$$$$
