
     RDKit          3D

  0  0  0  0  0  0  0  0  0  0999 V3000
M  V30 BEGIN CTAB
M  V30 COUNTS 99 108 0 0 0
M  V30 BEGIN ATOM
M  V30 1 Pd -3.2538 -1.1648 -3.9049 0
M  V30 2 Pb -3.4652 -1.2001 -2.9261 0
M  V30 3 Pb -3.0491 -1.1522 -4.8835 0
M  V30 4 Pb -3.8482 -1.9536 -4.0665 0
M  V30 5 Pb -2.6122 -0.4095 -3.7665 0
M  V30 6 Pd -1.7856 -5.0947 -6.4327 0
M  V30 7 Pb -1.5989 -5.9147 -5.8938 0
M  V30 8 Pb -2.7158 -5.0409 -6.0705 0
M  V30 9 Pb -1.9402 -4.2257 -6.8983 0
M  V30 10 Pb -0.8274 -5.0881 -6.7141 0
M  V30 11 Pd 2.8354 -0.0486 4.7073 0
M  V30 12 Pb 2.8971 0.5833 5.4840 0
M  V30 13 Pb 2.7403 -0.6849 3.9405 0
M  V30 14 Pb 3.3211 0.5967 4.1176 0
M  V30 15 Pb 2.3798 -0.7323 5.2755 0
M  V30 16 Pd 2.6500 5.9160 -0.0848 0
M  V30 17 Pb 2.4625 5.3515 -0.8901 0
M  V30 18 Pb 2.7327 6.4049 0.7829 0
M  V30 19 Pb 1.9748 6.5694 -0.4228 0
M  V30 20 Pb 3.2661 5.2236 0.2861 0
M  V30 21 Pd -1.4588 -2.5918 3.6254 0
M  V30 22 Pb -1.8693 -1.9089 4.2280 0
M  V30 23 Pb -0.9971 -3.2658 3.0469 0
M  V30 24 Pb -0.8205 -2.7795 4.3705 0
M  V30 25 Pb -2.0947 -2.3588 2.8871 0
M  V30 26 Pd 1.7960 -5.1150 -3.0839 0
M  V30 27 Pb 1.2079 -5.9044 -3.2626 0
M  V30 28 Pb 2.3563 -4.2994 -2.9305 0
M  V30 29 Pb 1.9633 -5.0503 -4.0680 0
M  V30 30 Pb 1.5946 -5.1915 -2.1065 0
M  V30 31 Pd -0.0233 4.2052 6.3302 0
M  V30 32 Pb -0.6223 3.4306 6.5265 0
M  V30 33 Pb -0.7889 4.6275 5.8487 0
M  V30 34 Pb 0.7596 3.7348 6.7413 0
M  V30 35 Pb 0.5692 4.9533 6.0300 0
M  V30 36 Pd 0.9385 -0.4094 -0.6629 0
M  V30 37 Pb 0.1476 -0.0839 -0.1456 0
M  V30 38 Pb 1.2887 -0.9435 0.1087 0
M  V30 39 Pb 0.5841 0.1153 -1.4365 0
M  V30 40 Pb 1.7071 -0.7560 -1.2010 0
M  V30 41 Pd -1.7229 4.3436 -0.5621 0
M  V30 42 Pb -1.5397 5.2853 -0.8408 0
M  V30 43 Pb -1.0752 4.0423 -1.2628 0
M  V30 44 Pb -2.2571 4.6764 0.2115 0
M  V30 45 Pb -1.8506 3.4099 -0.2205 0
M  V30 46 Ag 3.6951 1.0541 3.6554 0
M  V30 47 Fe 3.7286 2.8722 2.1290 0
M  V30 48 Ag 3.6880 4.6998 0.6142 0
M  V30 49 Ag -1.3458 4.8870 5.4222 0
M  V30 50 Fe -2.1051 4.9915 3.1778 0
M  V30 51 Ag -2.5584 4.9175 0.8512 0
M  V30 52 Ag -0.6172 -3.7701 2.6400 0
M  V30 53 Fe 0.3915 -4.4967 0.6150 0
M  V30 54 Ag 1.4178 -5.2755 -1.3815 0
M  V30 55 Ag -2.1008 -1.3967 4.7232 0
M  V30 56 Fe -1.6687 0.7185 5.7103 0
M  V30 57 Ag -1.0910 2.8492 6.5826 0
M  V30 58 Ag -3.6438 -1.2467 -2.1972 0
M  V30 59 Fe -3.0819 -1.7090 0.0659 0
M  V30 60 Ag -2.5753 -2.1584 2.3446 0
M  V30 61 Ag 2.7433 6.6782 1.4808 0
M  V30 62 Fe 1.9390 6.2139 3.6665 0
M  V30 63 Ag 0.9951 5.4885 5.7215 0
M  V30 64 Ba -0.4744 0.1709 0.1868 0
M  V30 65 Ga -1.2043 1.4538 0.1389 0
M  V30 66 Ba -1.9414 2.7328 0.0953 0
M  V30 67 Ba -0.0910 -5.0650 -6.8470 0
M  V30 68 Ga 1.0217 -5.0412 -5.8806 0
M  V30 69 Ba 2.0390 -5.0229 -4.8139 0
M  V30 70 Ba -2.9009 -1.1890 -5.6175 0
M  V30 71 Ga -2.4800 -2.3254 -6.4547 0
M  V30 72 Ba -2.0613 -3.5410 -7.1734 0
M  V30 73 Ba 1.4116 6.9888 -0.6811 0
M  V30 74 Ga 0.0135 6.5740 -0.8828 0
M  V30 75 Ba -1.3278 5.9818 -1.0155 0
M  V30 76 Ba -4.2499 -2.5678 -4.2251 0
M  V30 77 Ga -3.8818 -3.7777 -4.9851 0
M  V30 78 Ba -3.3905 -4.9311 -5.7628 0
M  V30 79 Ba -2.1022 0.1363 -3.6924 0
M  V30 80 Ga -0.9105 0.3357 -2.8457 0
M  V30 81 Ba 0.2774 0.5178 -1.9898 0
M  V30 82 Ba -1.4036 -6.4861 -5.4509 0
M  V30 83 Ga -0.3439 -6.5429 -4.4275 0
M  V30 84 Ba 0.7451 -6.4688 -3.4364 0
M  V30 85 Ba 2.9313 1.0497 6.0745 0
M  V30 86 Ga 2.1468 2.2097 6.5486 0
M  V30 87 Ba 1.3566 3.3691 7.0149 0
M  V30 88 Ba 2.7637 -3.6743 -2.8417 0
M  V30 89 Ga 2.5316 -2.3586 -2.2139 0
M  V30 90 Ba 2.2843 -1.0479 -1.5813 0
M  V30 91 Ba 2.0429 -1.2872 5.6492 0
M  V30 92 Ga 0.8516 -2.0957 5.3357 0
M  V30 93 Ba -0.3502 -2.8553 4.9484 0
M  V30 94 Ba 2.2306 4.9120 -1.4538 0
M  V30 95 Ga 0.8810 4.3541 -1.6748 0
M  V30 96 Ba -0.5179 3.8849 -1.7408 0
M  V30 97 Ba 2.6456 -1.1933 3.3960 0
M  V30 98 Ga 2.1064 -1.2420 2.0220 0
M  V30 99 Ba 1.5850 -1.3764 0.6470 0
M  V30 END ATOM
M  V30 BEGIN BOND
M  V30 1 1 1 2
M  V30 2 1 1 3
M  V30 3 1 1 4
M  V30 4 1 1 5
M  V30 5 1 6 7
M  V30 6 1 6 8
M  V30 7 1 6 9
M  V30 8 1 6 10
M  V30 9 1 11 12
M  V30 10 1 11 13
M  V30 11 1 11 14
M  V30 12 1 11 15
M  V30 13 1 16 17
M  V30 14 1 16 18
M  V30 15 1 16 19
M  V30 16 1 16 20
M  V30 17 1 21 22
M  V30 18 1 21 23
M  V30 19 1 21 24
M  V30 20 1 21 25
M  V30 21 1 26 27
M  V30 22 1 26 28
M  V30 23 1 26 29
M  V30 24 1 26 30
M  V30 25 1 31 32
M  V30 26 1 31 33
M  V30 27 1 31 34
M  V30 28 1 31 35
M  V30 29 1 36 37
M  V30 30 1 36 38
M  V30 31 1 36 39
M  V30 32 1 36 40
M  V30 33 1 41 42
M  V30 34 1 41 43
M  V30 35 1 41 44
M  V30 36 1 41 45
M  V30 37 1 46 47
M  V30 38 1 47 48
M  V30 39 1 49 50
M  V30 40 1 50 51
M  V30 41 1 52 53
M  V30 42 1 53 54
M  V30 43 1 55 56
M  V30 44 1 56 57
M  V30 45 1 58 59
M  V30 46 1 59 60
M  V30 47 1 61 62
M  V30 48 1 62 63
M  V30 49 1 64 65
M  V30 50 1 65 66
M  V30 51 1 67 68
M  V30 52 1 68 69
M  V30 53 1 70 71
M  V30 54 1 71 72
M  V30 55 1 73 74
M  V30 56 1 74 75
M  V30 57 1 76 77
M  V30 58 1 77 78
M  V30 59 1 79 80
M  V30 60 1 80 81
M  V30 61 1 82 83
M  V30 62 1 83 84
M  V30 63 1 85 86
M  V30 64 1 86 87
M  V30 65 1 88 89
M  V30 66 1 89 90
M  V30 67 1 91 92
M  V30 68 1 92 93
M  V30 69 1 94 95
M  V30 70 1 95 96
M  V30 71 1 97 98
M  V30 72 1 98 99
M  V30 73 1 2 58
M  V30 74 1 3 70
M  V30 75 1 4 76
M  V30 76 1 5 79
M  V30 77 1 7 82
M  V30 78 1 8 78
M  V30 79 1 9 72
M  V30 80 1 10 67
M  V30 81 1 12 85
M  V30 82 1 13 97
M  V30 83 1 14 46
M  V30 84 1 15 91
M  V30 85 1 17 94
M  V30 86 1 18 61
M  V30 87 1 19 73
M  V30 88 1 20 48
M  V30 89 1 22 55
M  V30 90 1 23 52
M  V30 91 1 24 93
M  V30 92 1 25 60
M  V30 93 1 27 84
M  V30 94 1 28 88
M  V30 95 1 29 69
M  V30 96 1 30 54
M  V30 97 1 32 57
M  V30 98 1 33 49
M  V30 99 1 34 87
M  V30 100 1 35 63
M  V30 101 1 37 64
M  V30 102 1 38 99
M  V30 103 1 39 81
M  V30 104 1 40 90
M  V30 105 1 42 75
M  V30 106 1 43 96
M  V30 107 1 44 51
M  V30 108 1 45 66
M  V30 END BOND
M  V30 END CTAB
M  END

$$$$
