
     RDKit          3D

  0  0  0  0  0  0  0  0  0  0999 V3000
M  V30 BEGIN CTAB
M  V30 COUNTS 99 108 0 0 0
M  V30 BEGIN ATOM
M  V30 1 Pd -3.3913 3.2196 -6.8330 0
M  V30 2 Pb -3.3937 3.8155 -6.0351 0
M  V30 3 Pb -3.2727 2.6352 -7.6363 0
M  V30 4 Pb -3.2174 4.0113 -7.4168 0
M  V30 5 Pb -3.5440 2.4298 -6.2331 0
M  V30 6 Pd 0.6505 3.6549 -9.4182 0
M  V30 7 Pb 1.3283 4.2867 -9.0389 0
M  V30 8 Pb -0.0303 4.3823 -9.4613 0
M  V30 9 Pb -0.0607 3.0073 -9.6971 0
M  V30 10 Pb 1.3119 2.9158 -9.3152 0
M  V30 11 Pd -2.9878 0.0481 3.3827 0
M  V30 12 Pb -2.5470 0.6089 4.0851 0
M  V30 13 Pb -3.4075 -0.5524 2.7011 0
M  V30 14 Pb -3.1597 -0.6474 4.0766 0
M  V30 15 Pb -2.8984 0.7782 2.7023 0
M  V30 16 Pd -0.4119 -4.9892 8.4991 0
M  V30 17 Pb -0.5793 -5.8146 7.9582 0
M  V30 18 Pb -0.1695 -4.1179 8.9257 0
M  V30 19 Pb 0.4692 -5.3675 8.7661 0
M  V30 20 Pb -1.2607 -4.5922 8.1631 0
M  V30 21 Pd 0.1921 3.4649 -0.3800 0
M  V30 22 Pb 0.7557 2.8701 0.1887 0
M  V30 23 Pb 1.0159 3.7966 -0.8481 0
M  V30 24 Pb -0.6495 3.1644 0.0746 0
M  V30 25 Pb -0.3885 4.0399 -0.9510 0
M  V30 26 Pd 3.2211 2.8355 -5.1681 0
M  V30 27 Pb 3.2738 3.6744 -5.7126 0
M  V30 28 Pb 3.1321 1.9776 -4.6676 0
M  V30 29 Pb 3.2615 2.3111 -6.0182 0
M  V30 30 Pb 3.1929 3.3596 -4.3124 0
M  V30 31 Pd 1.5740 -0.5642 6.1991 0
M  V30 32 Pb 1.7954 -0.2448 5.2802 0
M  V30 33 Pb 2.3705 -1.1676 6.1195 0
M  V30 34 Pb 0.8024 0.0750 6.2307 0
M  V30 35 Pb 1.3611 -0.8751 7.1307 0
M  V30 36 Pd -1.3175 -2.0589 -1.2215 0
M  V30 37 Pb -0.7701 -2.6575 -0.6301 0
M  V30 38 Pb -2.1457 -2.2214 -0.6868 0
M  V30 39 Pb -1.8741 -1.5349 -1.8737 0
M  V30 40 Pb -0.4760 -1.8527 -1.7164 0
M  V30 41 Pd 2.4506 -5.6639 4.9381 0
M  V30 42 Pb 2.7460 -5.8938 5.8637 0
M  V30 43 Pb 1.7296 -6.3516 5.0251 0
M  V30 44 Pb 3.1027 -4.9089 4.9555 0
M  V30 45 Pb 2.1616 -5.4472 4.0025 0
M  V30 46 Ag -3.3201 -1.1483 4.6078 0
M  V30 47 Fe -2.6351 -2.7198 6.2456 0
M  V30 48 Ag -1.8634 -4.2750 7.8601 0
M  V30 49 Ag -0.3236 -3.1450 -0.2679 0
M  V30 50 Fe 0.7698 -4.1616 1.5837 0
M  V30 51 Ag 1.9563 -5.3192 3.2896 0
M  V30 52 Ag -3.6666 1.8552 -5.7615 0
M  V30 53 Fe -2.9394 0.3527 -4.0654 0
M  V30 54 Ag -2.3369 -1.2047 -2.3702 0
M  V30 55 Ag 3.0378 1.3138 -4.3377 0
M  V30 56 Fe 1.6153 -0.1944 -3.1847 0
M  V30 57 Ag 0.1828 -1.6941 -2.0330 0
M  V30 58 Ag 1.1838 2.4204 0.6047 0
M  V30 59 Fe 1.5675 1.2087 2.6077 0
M  V30 60 Ag 1.9888 -0.0168 4.5948 0
M  V30 61 Ag -3.3060 4.2460 -5.4323 0
M  V30 62 Fe -2.1367 4.4354 -3.3791 0
M  V30 63 Ag -0.8699 4.4216 -1.3757 0
M  V30 64 Ba 1.8136 2.3805 -9.1742 0
M  V30 65 Ga 2.5736 2.1133 -7.9420 0
M  V30 66 Ba 3.2831 1.9322 -6.6646 0
M  V30 67 Ba -3.1024 2.2458 -8.2550 0
M  V30 68 Ga -1.8916 2.3392 -9.0955 0
M  V30 69 Ba -0.6318 2.5398 -9.8399 0
M  V30 70 Ba 2.9877 -1.5749 5.9778 0
M  V30 71 Ga 3.2850 -2.9467 5.5202 0
M  V30 72 Ba 3.5575 -4.3250 5.0669 0
M  V30 73 Ba 1.1525 -5.6466 8.8632 0
M  V30 74 Ga 2.1193 -5.8893 7.7857 0
M  V30 75 Ba 2.9283 -6.0532 6.5714 0
M  V30 76 Ba -3.0434 4.5858 -7.8641 0
M  V30 77 Ga -1.8414 4.8073 -8.6830 0
M  V30 78 Ba -0.5851 4.8820 -9.4445 0
M  V30 79 Ba 1.6346 4.0697 -1.1812 0
M  V30 80 Ga 2.3889 3.8846 -2.4409 0
M  V30 81 Ba 3.1983 3.7590 -3.6733 0
M  V30 82 Ba 1.8293 4.7289 -8.6952 0
M  V30 83 Ga 2.5820 4.5440 -7.4374 0
M  V30 84 Ba 3.2903 4.2705 -6.1701 0
M  V30 85 Ba -2.2150 0.9912 4.6401 0
M  V30 86 Ga -0.9866 0.7869 5.4357 0
M  V30 87 Ba 0.2426 0.5781 6.2290 0
M  V30 88 Ba -2.9130 1.3382 2.2010 0
M  V30 89 Ga -2.0405 2.1262 1.3060 0
M  V30 90 Ba -1.3285 3.0096 0.3595 0
M  V30 91 Ba -0.6333 -6.3975 7.4875 0
M  V30 92 Ga 0.2149 -6.6889 6.3147 0
M  V30 93 Ba 1.1625 -6.8146 5.1895 0
M  V30 94 Ba 0.0497 -3.4499 9.1881 0
M  V30 95 Ga 0.6187 -2.2611 8.5172 0
M  V30 96 Ba 1.1879 -1.0775 7.8371 0
M  V30 97 Ba -3.7094 -1.0351 2.2118 0
M  V30 98 Ga -3.2533 -1.6718 0.9618 0
M  V30 99 Ba -2.7749 -2.2946 -0.2867 0
M  V30 END ATOM
M  V30 BEGIN BOND
M  V30 1 1 1 2
M  V30 2 1 1 3
M  V30 3 1 1 4
M  V30 4 1 1 5
M  V30 5 1 6 7
M  V30 6 1 6 8
M  V30 7 1 6 9
M  V30 8 1 6 10
M  V30 9 1 11 12
M  V30 10 1 11 13
M  V30 11 1 11 14
M  V30 12 1 11 15
M  V30 13 1 16 17
M  V30 14 1 16 18
M  V30 15 1 16 19
M  V30 16 1 16 20
M  V30 17 1 21 22
M  V30 18 1 21 23
M  V30 19 1 21 24
M  V30 20 1 21 25
M  V30 21 1 26 27
M  V30 22 1 26 28
M  V30 23 1 26 29
M  V30 24 1 26 30
M  V30 25 1 31 32
M  V30 26 1 31 33
M  V30 27 1 31 34
M  V30 28 1 31 35
M  V30 29 1 36 37
M  V30 30 1 36 38
M  V30 31 1 36 39
M  V30 32 1 36 40
M  V30 33 1 41 42
M  V30 34 1 41 43
M  V30 35 1 41 44
M  V30 36 1 41 45
M  V30 37 1 46 47
M  V30 38 1 47 48
M  V30 39 1 49 50
M  V30 40 1 50 51
M  V30 41 1 52 53
M  V30 42 1 53 54
M  V30 43 1 55 56
M  V30 44 1 56 57
M  V30 45 1 58 59
M  V30 46 1 59 60
M  V30 47 1 61 62
M  V30 48 1 62 63
M  V30 49 1 64 65
M  V30 50 1 65 66
M  V30 51 1 67 68
M  V30 52 1 68 69
M  V30 53 1 70 71
M  V30 54 1 71 72
M  V30 55 1 73 74
M  V30 56 1 74 75
M  V30 57 1 76 77
M  V30 58 1 77 78
M  V30 59 1 79 80
M  V30 60 1 80 81
M  V30 61 1 82 83
M  V30 62 1 83 84
M  V30 63 1 85 86
M  V30 64 1 86 87
M  V30 65 1 88 89
M  V30 66 1 89 90
M  V30 67 1 91 92
M  V30 68 1 92 93
M  V30 69 1 94 95
M  V30 70 1 95 96
M  V30 71 1 97 98
M  V30 72 1 98 99
M  V30 73 1 2 61
M  V30 74 1 3 67
M  V30 75 1 4 76
M  V30 76 1 5 52
M  V30 77 1 7 82
M  V30 78 1 8 78
M  V30 79 1 9 69
M  V30 80 1 10 64
M  V30 81 1 12 85
M  V30 82 1 13 97
M  V30 83 1 14 46
M  V30 84 1 15 88
M  V30 85 1 17 91
M  V30 86 1 18 94
M  V30 87 1 19 73
M  V30 88 1 20 48
M  V30 89 1 22 58
M  V30 90 1 23 79
M  V30 91 1 24 90
M  V30 92 1 25 63
M  V30 93 1 27 84
M  V30 94 1 28 55
M  V30 95 1 29 66
M  V30 96 1 30 81
M  V30 97 1 32 60
M  V30 98 1 33 70
M  V30 99 1 34 87
M  V30 100 1 35 96
M  V30 101 1 37 49
M  V30 102 1 38 99
M  V30 103 1 39 54
M  V30 104 1 40 57
M  V30 105 1 42 75
M  V30 106 1 43 93
M  V30 107 1 44 72
M  V30 108 1 45 51
M  V30 END BOND
M  V30 END CTAB
M  END

$$$$
