
     RDKit          3D

  0  0  0  0  0  0  0  0  0  0999 V3000
M  V30 BEGIN CTAB
M  V30 COUNTS 99 108 0 0 0
M  V30 BEGIN ATOM
M  V30 1 Pd 2.0018 -1.5300 -1.1485 0
M  V30 2 Pb 2.2224 -2.1430 -0.3890 0
M  V30 3 Pb 1.2931 -1.0487 -1.6644 0
M  V30 4 Pb 1.8775 -2.3111 -1.7604 0
M  V30 5 Pb 2.2768 -0.9395 -1.9075 0
M  V30 6 Pd -4.9786 0.5731 3.9075 0
M  V30 7 Pb -5.4945 -0.2138 3.5662 0
M  V30 8 Pb -4.4976 -0.0083 4.5646 0
M  V30 9 Pb -4.4902 1.3798 4.2441 0
M  V30 10 Pb -5.3881 1.1233 3.1808 0
M  V30 11 Pd -5.2310 -0.9887 -0.8274 0
M  V30 12 Pb -5.7975 -1.3935 -0.1122 0
M  V30 13 Pb -4.5696 -0.5904 -1.4601 0
M  V30 14 Pb -5.5099 -0.0842 -0.5024 0
M  V30 15 Pb -4.9467 -1.8988 -1.1302 0
M  V30 16 Pd -5.4625 -3.8426 -5.4710 0
M  V30 17 Pb -4.8676 -3.0305 -5.5887 0
M  V30 18 Pb -5.6923 -4.8130 -5.5464 0
M  V30 19 Pb -5.8482 -3.6866 -6.3789 0
M  V30 20 Pb -5.0890 -3.9981 -4.5566 0
M  V30 21 Pd 5.2950 5.3039 1.7347 0
M  V30 22 Pb 5.3122 5.6843 0.8018 0
M  V30 23 Pb 5.2373 4.6553 2.4949 0
M  V30 24 Pb 4.3930 5.6884 1.9344 0
M  V30 25 Pb 6.2024 4.9377 1.5514 0
M  V30 26 Pd 5.9253 2.1208 -1.7439 0
M  V30 27 Pb 5.1619 1.8057 -2.3090 0
M  V30 28 Pb 5.9020 1.2988 -1.1732 0
M  V30 29 Pb 6.7004 2.4227 -1.1970 0
M  V30 30 Pb 5.8286 3.0765 -2.0481 0
M  V30 31 Pd 1.9927 -1.3214 6.1855 0
M  V30 32 Pb 2.9391 -1.0255 6.0875 0
M  V30 33 Pb 1.0270 -1.5693 6.2752 0
M  V30 34 Pb 2.1543 -2.0519 5.5232 0
M  V30 35 Pb 1.8196 -0.4991 6.7458 0
M  V30 36 Pd 1.5791 4.3308 5.4885 0
M  V30 37 Pb 1.5152 3.6062 6.1927 0
M  V30 38 Pb 2.5658 4.1944 5.4706 0
M  V30 39 Pb 1.6472 5.0108 4.7583 0
M  V30 40 Pb 0.5822 4.4028 5.4817 0
M  V30 41 Pd -0.9989 -4.3354 -7.7188 0
M  V30 42 Pb -1.0918 -5.3215 -7.8566 0
M  V30 43 Pb -0.4974 -4.4907 -6.8675 0
M  V30 44 Pb -1.4815 -4.1767 -8.5785 0
M  V30 45 Pb -1.2972 -3.4244 -7.3893 0
M  V30 46 Ag 2.3472 -2.5722 0.2139 0
M  V30 47 Fe 2.3487 -2.6648 2.5870 0
M  V30 48 Ag 2.2852 -2.5247 4.9569 0
M  V30 49 Ag -4.0931 -0.4561 5.0114 0
M  V30 50 Fe -1.9239 -1.1196 5.7188 0
M  V30 51 Ag 0.2915 -1.7011 6.3515 0
M  V30 52 Ag 1.7655 -2.8931 -2.2200 0
M  V30 53 Fe 0.8322 -3.7575 -4.2256 0
M  V30 54 Ag -0.1086 -4.6030 -6.2358 0
M  V30 55 Ag 5.2374 3.9777 2.8116 0
M  V30 56 Fe 5.5151 1.9910 1.5533 0
M  V30 57 Ag 5.8433 0.9181 -0.5321 0
M  V30 58 Ag -4.1425 1.9991 4.4889 0
M  V30 59 Fe -2.1646 3.2180 4.9844 0
M  V30 60 Ag -0.1674 4.4090 5.4702 0
M  V30 61 Ag -5.9590 -3.5958 -7.1071 0
M  V30 62 Fe -4.2814 -3.7067 -8.7489 0
M  V30 63 Ag -1.9838 -4.0443 -9.1087 0
M  V30 64 Ag 3.5726 -0.6467 6.0062 0
M  V30 65 Fe 3.9312 1.6656 5.7103 0
M  V30 66 Ag 3.2520 3.9116 5.4743 0
M  V30 67 Ag -5.5637 -5.5251 -5.7433 0
M  V30 68 Fe -3.5914 -6.2745 -6.8329 0
M  V30 69 Ag -1.4467 -5.9804 -7.8090 0
M  V30 70 Ag 0.7211 -0.7173 -2.0182 0
M  V30 71 Fe -1.6361 -0.4421 -2.0586 0
M  V30 72 Ag -4.0000 -0.3372 -1.8739 0
M  V30 73 Ba 6.8607 4.6358 1.3771 0
M  V30 74 Ga 7.1502 3.6535 0.3283 0
M  V30 75 Ba 7.2483 2.6785 -0.7619 0
M  V30 76 Ba 3.7258 5.9895 2.1011 0
M  V30 77 Ga 2.7097 5.7504 3.1441 0
M  V30 78 Ba 1.7018 5.5004 4.1925 0
M  V30 79 Ba -4.7208 -2.5787 -1.3531 0
M  V30 80 Ga -4.7718 -3.3454 -2.6124 0
M  V30 81 Ba -4.8186 -4.1190 -3.8676 0
M  V30 82 Ba -5.9005 -0.7757 3.2772 0
M  V30 83 Ga -6.0687 -1.2626 1.8957 0
M  V30 84 Ba -6.1606 -1.6687 0.4813 0
M  V30 85 Ba -5.6570 1.4919 2.5864 0
M  V30 86 Ga -5.7178 1.0820 1.1708 0
M  V30 87 Ba -5.7304 0.5727 -0.2135 0
M  V30 88 Ba -4.3197 -2.5158 -5.7463 0
M  V30 89 Ga -2.9804 -2.6353 -6.4163 0
M  V30 90 Ba -1.6506 -2.8103 -7.0930 0
M  V30 91 Ba 1.6864 0.1326 7.1475 0
M  V30 92 Ga 1.5860 1.5977 6.8981 0
M  V30 93 Ba 1.4687 3.0738 6.7362 0
M  V30 94 Ba 2.4824 -0.4754 -2.4598 0
M  V30 95 Ga 3.5418 0.5410 -2.6062 0
M  V30 96 Ba 4.6039 1.5557 -2.7446 0
M  V30 97 Ba 5.3462 5.8238 0.0549 0
M  V30 98 Ga 5.5410 4.8729 -1.0791 0
M  V30 99 Ba 5.7414 3.8281 -2.1261 0
M  V30 END ATOM
M  V30 BEGIN BOND
M  V30 1 1 1 2
M  V30 2 1 1 3
M  V30 3 1 1 4
M  V30 4 1 1 5
M  V30 5 1 6 7
M  V30 6 1 6 8
M  V30 7 1 6 9
M  V30 8 1 6 10
M  V30 9 1 11 12
M  V30 10 1 11 13
M  V30 11 1 11 14
M  V30 12 1 11 15
M  V30 13 1 16 17
M  V30 14 1 16 18
M  V30 15 1 16 19
M  V30 16 1 16 20
M  V30 17 1 21 22
M  V30 18 1 21 23
M  V30 19 1 21 24
M  V30 20 1 21 25
M  V30 21 1 26 27
M  V30 22 1 26 28
M  V30 23 1 26 29
M  V30 24 1 26 30
M  V30 25 1 31 32
M  V30 26 1 31 33
M  V30 27 1 31 34
M  V30 28 1 31 35
M  V30 29 1 36 37
M  V30 30 1 36 38
M  V30 31 1 36 39
M  V30 32 1 36 40
M  V30 33 1 41 42
M  V30 34 1 41 43
M  V30 35 1 41 44
M  V30 36 1 41 45
M  V30 37 1 46 47
M  V30 38 1 47 48
M  V30 39 1 49 50
M  V30 40 1 50 51
M  V30 41 1 52 53
M  V30 42 1 53 54
M  V30 43 1 55 56
M  V30 44 1 56 57
M  V30 45 1 58 59
M  V30 46 1 59 60
M  V30 47 1 61 62
M  V30 48 1 62 63
M  V30 49 1 64 65
M  V30 50 1 65 66
M  V30 51 1 67 68
M  V30 52 1 68 69
M  V30 53 1 70 71
M  V30 54 1 71 72
M  V30 55 1 73 74
M  V30 56 1 74 75
M  V30 57 1 76 77
M  V30 58 1 77 78
M  V30 59 1 79 80
M  V30 60 1 80 81
M  V30 61 1 82 83
M  V30 62 1 83 84
M  V30 63 1 85 86
M  V30 64 1 86 87
M  V30 65 1 88 89
M  V30 66 1 89 90
M  V30 67 1 91 92
M  V30 68 1 92 93
M  V30 69 1 94 95
M  V30 70 1 95 96
M  V30 71 1 97 98
M  V30 72 1 98 99
M  V30 73 1 2 46
M  V30 74 1 3 70
M  V30 75 1 4 52
M  V30 76 1 5 94
M  V30 77 1 7 82
M  V30 78 1 8 49
M  V30 79 1 9 58
M  V30 80 1 10 85
M  V30 81 1 12 84
M  V30 82 1 13 72
M  V30 83 1 14 87
M  V30 84 1 15 79
M  V30 85 1 17 88
M  V30 86 1 18 67
M  V30 87 1 19 61
M  V30 88 1 20 81
M  V30 89 1 22 97
M  V30 90 1 23 55
M  V30 91 1 24 76
M  V30 92 1 25 73
M  V30 93 1 27 96
M  V30 94 1 28 57
M  V30 95 1 29 75
M  V30 96 1 30 99
M  V30 97 1 32 64
M  V30 98 1 33 51
M  V30 99 1 34 48
M  V30 100 1 35 91
M  V30 101 1 37 93
M  V30 102 1 38 66
M  V30 103 1 39 78
M  V30 104 1 40 60
M  V30 105 1 42 69
M  V30 106 1 43 54
M  V30 107 1 44 63
M  V30 108 1 45 90
M  V30 END BOND
M  V30 END CTAB
M  END

$$$$
