
     RDKit          3D

  0  0  0  0  0  0  0  0  0  0999 V3000
M  V30 BEGIN CTAB
M  V30 COUNTS 99 108 0 0 0
M  V30 BEGIN ATOM
M  V30 1 Pd -2.0721 -3.2304 -1.3152 0
M  V30 2 Pb -2.3663 -4.1658 -1.1171 0
M  V30 3 Pb -1.7049 -2.3307 -1.5502 0
M  V30 4 Pb -2.1124 -3.4308 -2.2929 0
M  V30 5 Pb -2.0094 -3.0147 -0.3375 0
M  V30 6 Pd -3.1466 7.7041 0.5764 0
M  V30 7 Pb -2.3558 7.8258 1.1772 0
M  V30 8 Pb -2.5703 7.5950 -0.2350 0
M  V30 9 Pb -3.7396 7.6134 1.3723 0
M  V30 10 Pb -3.9242 7.4959 -0.0112 0
M  V30 11 Pd 4.6661 -2.2190 2.8905 0
M  V30 12 Pb 5.0019 -2.9517 2.3016 0
M  V30 13 Pb 4.2646 -1.4944 3.4471 0
M  V30 14 Pb 5.3355 -1.5859 2.5047 0
M  V30 15 Pb 3.9635 -2.8565 3.2039 0
M  V30 16 Pd 4.4282 0.2638 -1.7004 0
M  V30 17 Pb 5.1382 0.2345 -0.9951 0
M  V30 18 Pb 4.7063 -0.6369 -2.0435 0
M  V30 19 Pb 4.1482 1.1647 -1.3619 0
M  V30 20 Pb 3.7146 0.2918 -2.4000 0
M  V30 21 Pd 0.5778 4.4778 3.4918 0
M  V30 22 Pb 0.2311 5.3962 3.2737 0
M  V30 23 Pb 1.0125 3.6263 3.7833 0
M  V30 24 Pb 1.1774 4.5100 2.6906 0
M  V30 25 Pb -0.0359 4.3752 4.2774 0
M  V30 26 Pd 1.8874 -3.5833 -4.4237 0
M  V30 27 Pb 2.8335 -3.5167 -4.1011 0
M  V30 28 Pb 1.9154 -4.5850 -4.4251 0
M  V30 29 Pb 0.9293 -3.6425 -4.6987 0
M  V30 30 Pb 1.8344 -2.5843 -4.4260 0
M  V30 31 Pd 1.0218 -7.1572 -0.6932 0
M  V30 32 Pb 0.0248 -7.2185 -0.7467 0
M  V30 33 Pb 1.1305 -7.3199 -1.6728 0
M  V30 34 Pb 0.9595 -6.9101 0.2725 0
M  V30 35 Pb 2.0071 -7.0137 -0.6190 0
M  V30 36 Pd -3.9096 1.7014 4.0944 0
M  V30 37 Pb -3.2948 2.1201 4.7661 0
M  V30 38 Pb -4.4790 1.3243 3.3626 0
M  V30 39 Pb -4.4241 2.5574 4.1221 0
M  V30 40 Pb -3.3683 0.8635 4.0171 0
M  V30 41 Pd -3.5221 2.0147 -2.9727 0
M  V30 42 Pb -2.9212 2.7505 -3.2889 0
M  V30 43 Pb -2.7372 1.4071 -2.8577 0
M  V30 44 Pb -4.1095 1.3893 -2.4625 0
M  V30 45 Pb -4.2671 2.6753 -3.0049 0
M  V30 46 Ag 3.9485 1.8418 -1.1017 0
M  V30 47 Fe 2.7901 3.1846 0.4813 0
M  V30 48 Ag 1.6186 4.4941 2.0826 0
M  V30 49 Ag 3.4323 -3.3644 3.3478 0
M  V30 50 Fe 2.1257 -5.0516 2.3093 0
M  V30 51 Ag 0.9916 -6.6532 0.9748 0
M  V30 52 Ag -4.4504 7.2346 -0.4706 0
M  V30 53 Fe -4.8416 5.3179 -1.8053 0
M  V30 54 Ag -4.7431 3.2456 -2.9469 0
M  V30 55 Ag -2.2218 7.3680 -0.8611 0
M  V30 56 Fe -2.2061 5.4598 -2.2790 0
M  V30 57 Ag -2.5176 3.3776 -3.3833 0
M  V30 58 Ag 5.1560 -3.5300 1.8529 0
M  V30 59 Fe 4.0930 -5.2482 0.6096 0
M  V30 60 Ag 2.7237 -6.8274 -0.5125 0
M  V30 61 Ag -4.1741 7.3889 1.9362 0
M  V30 62 Fe -4.5948 5.3965 3.1520 0
M  V30 63 Ag -4.7291 3.2413 4.1336 0
M  V30 64 Ag -1.9493 -2.8348 0.3913 0
M  V30 65 Fe -2.4411 -1.3414 2.1749 0
M  V30 66 Ag -3.0002 0.2248 3.8740 0
M  V30 67 Ag -4.8242 1.0235 2.7672 0
M  V30 68 Fe -4.8086 0.9079 0.3950 0
M  V30 69 Ag -4.5290 1.0256 -1.9603 0
M  V30 70 Ag 3.9199 -0.9667 3.8502 0
M  V30 71 Fe 2.6454 1.0349 3.9242 0
M  V30 72 Ag 1.3683 3.0308 4.0680 0
M  V30 73 Ba -1.7758 7.8964 1.6488 0
M  V30 74 Ga -0.8824 6.9694 2.3777 0
M  V30 75 Ba 0.0541 6.1194 3.1449 0
M  V30 76 Ba -2.5355 -4.8887 -1.0075 0
M  V30 77 Ga -1.6707 -6.0774 -0.8761 0
M  V30 78 Ba -0.7255 -7.2041 -0.7536 0
M  V30 79 Ba -0.4713 4.2167 4.8706 0
M  V30 80 Ga -1.6651 3.3661 5.0686 0
M  V30 81 Ba -2.8589 2.5097 5.2403 0
M  V30 82 Ba 4.9080 -1.3105 -2.3133 0
M  V30 83 Ga 4.2272 -2.3792 -3.0754 0
M  V30 84 Ba 3.5335 -3.4395 -3.8374 0
M  V30 85 Ba 3.1815 0.2955 -2.9270 0
M  V30 86 Ga 2.4828 -0.7629 -3.6803 0
M  V30 87 Ba 1.7948 -1.8350 -4.4238 0
M  V30 88 Ba 5.8154 -1.1205 2.1670 0
M  V30 89 Ga 5.7618 -0.4368 0.8610 0
M  V30 90 Ba 5.6594 0.2237 -0.4541 0
M  V30 91 Ba -2.1032 -3.5568 -3.0310 0
M  V30 92 Ga -0.9842 -3.6382 -3.9851 0
M  V30 93 Ba 0.2004 -3.7027 -4.8579 0
M  V30 94 Ba -1.3833 -1.6898 -1.7694 0
M  V30 95 Ga -1.7927 -0.3564 -2.2477 0
M  V30 96 Ba -2.1231 0.9961 -2.7335 0
M  V30 97 Ba 1.8837 -5.3365 -4.4377 0
M  V30 98 Ga 1.5783 -6.3800 -3.4391 0
M  V30 99 Ba 1.2694 -7.3882 -2.4059 0
M  V30 END ATOM
M  V30 BEGIN BOND
M  V30 1 1 1 2
M  V30 2 1 1 3
M  V30 3 1 1 4
M  V30 4 1 1 5
M  V30 5 1 6 7
M  V30 6 1 6 8
M  V30 7 1 6 9
M  V30 8 1 6 10
M  V30 9 1 11 12
M  V30 10 1 11 13
M  V30 11 1 11 14
M  V30 12 1 11 15
M  V30 13 1 16 17
M  V30 14 1 16 18
M  V30 15 1 16 19
M  V30 16 1 16 20
M  V30 17 1 21 22
M  V30 18 1 21 23
M  V30 19 1 21 24
M  V30 20 1 21 25
M  V30 21 1 26 27
M  V30 22 1 26 28
M  V30 23 1 26 29
M  V30 24 1 26 30
M  V30 25 1 31 32
M  V30 26 1 31 33
M  V30 27 1 31 34
M  V30 28 1 31 35
M  V30 29 1 36 37
M  V30 30 1 36 38
M  V30 31 1 36 39
M  V30 32 1 36 40
M  V30 33 1 41 42
M  V30 34 1 41 43
M  V30 35 1 41 44
M  V30 36 1 41 45
M  V30 37 1 46 47
M  V30 38 1 47 48
M  V30 39 1 49 50
M  V30 40 1 50 51
M  V30 41 1 52 53
M  V30 42 1 53 54
M  V30 43 1 55 56
M  V30 44 1 56 57
M  V30 45 1 58 59
M  V30 46 1 59 60
M  V30 47 1 61 62
M  V30 48 1 62 63
M  V30 49 1 64 65
M  V30 50 1 65 66
M  V30 51 1 67 68
M  V30 52 1 68 69
M  V30 53 1 70 71
M  V30 54 1 71 72
M  V30 55 1 73 74
M  V30 56 1 74 75
M  V30 57 1 76 77
M  V30 58 1 77 78
M  V30 59 1 79 80
M  V30 60 1 80 81
M  V30 61 1 82 83
M  V30 62 1 83 84
M  V30 63 1 85 86
M  V30 64 1 86 87
M  V30 65 1 88 89
M  V30 66 1 89 90
M  V30 67 1 91 92
M  V30 68 1 92 93
M  V30 69 1 94 95
M  V30 70 1 95 96
M  V30 71 1 97 98
M  V30 72 1 98 99
M  V30 73 1 2 76
M  V30 74 1 3 94
M  V30 75 1 4 91
M  V30 76 1 5 64
M  V30 77 1 7 73
M  V30 78 1 8 55
M  V30 79 1 9 61
M  V30 80 1 10 52
M  V30 81 1 12 58
M  V30 82 1 13 70
M  V30 83 1 14 88
M  V30 84 1 15 49
M  V30 85 1 17 90
M  V30 86 1 18 82
M  V30 87 1 19 46
M  V30 88 1 20 85
M  V30 89 1 22 75
M  V30 90 1 23 72
M  V30 91 1 24 48
M  V30 92 1 25 79
M  V30 93 1 27 84
M  V30 94 1 28 97
M  V30 95 1 29 93
M  V30 96 1 30 87
M  V30 97 1 32 78
M  V30 98 1 33 99
M  V30 99 1 34 51
M  V30 100 1 35 60
M  V30 101 1 37 81
M  V30 102 1 38 67
M  V30 103 1 39 63
M  V30 104 1 40 66
M  V30 105 1 42 57
M  V30 106 1 43 96
M  V30 107 1 44 69
M  V30 108 1 45 54
M  V30 END BOND
M  V30 END CTAB
M  END

$$$$
