
     RDKit          3D

  0  0  0  0  0  0  0  0  0  0999 V3000
M  V30 BEGIN CTAB
M  V30 COUNTS 99 108 0 0 0
M  V30 BEGIN ATOM
M  V30 1 Pd -0.6764 4.5579 -2.6925 0
M  V30 2 Pb -1.2747 3.7567 -2.6908 0
M  V30 3 Pb -0.0735 5.3602 -2.6896 0
M  V30 4 Pb 0.1163 3.9901 -2.9226 0
M  V30 5 Pb -1.4945 5.1123 -2.5194 0
M  V30 6 Pd 2.4673 3.1250 3.2990 0
M  V30 7 Pb 2.1927 2.3228 2.7676 0
M  V30 8 Pb 2.7198 3.9633 3.7770 0
M  V30 9 Pb 1.6327 3.0671 3.8440 0
M  V30 10 Pb 3.2367 3.2833 2.6765 0
M  V30 11 Pd -2.3080 -6.3693 1.1421 0
M  V30 12 Pb -2.1051 -6.9119 0.3359 0
M  V30 13 Pb -2.5389 -5.8339 1.9598 0
M  V30 14 Pb -1.7501 -7.0162 1.6632 0
M  V30 15 Pb -2.8353 -5.7194 0.5637 0
M  V30 16 Pd 2.8857 -6.9369 1.1622 0
M  V30 17 Pb 2.1702 -7.5418 1.5155 0
M  V30 18 Pb 2.7107 -7.1738 0.2044 0
M  V30 19 Pb 2.9643 -6.5409 2.0717 0
M  V30 20 Pb 3.5458 -6.2721 0.8209 0
M  V30 21 Pd -1.0615 -1.5117 3.0213 0
M  V30 22 Pb -0.3803 -0.9230 2.5815 0
M  V30 23 Pb -1.7097 -2.1826 3.3824 0
M  V30 24 Pb -0.3282 -2.0113 3.4787 0
M  V30 25 Pb -1.8044 -1.0210 2.5620 0
M  V30 26 Pd 2.5216 -2.3427 -4.2785 0
M  V30 27 Pb 2.3834 -3.3366 -4.2327 0
M  V30 28 Pb 1.7961 -2.2303 -4.9578 0
M  V30 29 Pb 2.6386 -1.3494 -4.2429 0
M  V30 30 Pb 3.2270 -2.4688 -3.5854 0
M  V30 31 Pd -2.5862 -3.0053 -3.8132 0
M  V30 32 Pb -2.7981 -2.0661 -3.5455 0
M  V30 33 Pb -2.0924 -2.6772 -4.6169 0
M  V30 34 Pb -3.0360 -3.3506 -2.9683 0
M  V30 35 Pb -2.3728 -3.9372 -4.0808 0
M  V30 36 Pd -3.9297 5.2276 1.4295 0
M  V30 37 Pb -4.1914 4.2828 1.2377 0
M  V30 38 Pb -3.5617 6.1381 1.6050 0
M  V30 39 Pb -3.6473 4.9182 2.3357 0
M  V30 40 Pb -4.0778 5.5130 0.4837 0
M  V30 41 Pd 2.7097 7.2535 0.8229 0
M  V30 42 Pb 2.9157 7.2117 1.7996 0
M  V30 43 Pb 2.4718 7.2803 -0.1512 0
M  V30 44 Pb 1.9299 7.8438 1.0182 0
M  V30 45 Pb 3.4196 6.5623 0.6761 0
M  V30 46 Ag -1.7544 3.1803 -2.6782 0
M  V30 47 Fe -2.3251 0.9009 -3.0208 0
M  V30 48 Ag -2.9619 -1.3642 -3.3406 0
M  V30 49 Ag -2.3631 -0.6512 2.2209 0
M  V30 50 Fe -3.3913 1.4114 1.6437 0
M  V30 51 Ag -4.3016 3.5479 1.1434 0
M  V30 52 Ag 2.9185 -6.1328 2.6926 0
M  V30 53 Fe 1.6571 -4.2695 3.4354 0
M  V30 54 Ag 0.2114 -2.4253 3.7898 0
M  V30 55 Ag 2.5790 -7.2001 -0.5366 0
M  V30 56 Fe 2.4140 -5.7548 -2.4205 0
M  V30 57 Ag 2.3121 -4.0774 -4.1063 0
M  V30 58 Ag -1.9779 -7.2155 -0.3262 0
M  V30 59 Fe -1.9843 -6.3352 -2.5091 0
M  V30 60 Ag -2.2133 -4.6561 -4.1421 0
M  V30 61 Ag 3.9730 -5.7390 0.5192 0
M  V30 62 Fe 4.0034 -4.1293 -1.2206 0
M  V30 63 Ag 3.7117 -2.6448 -3.0455 0
M  V30 64 Ag 0.9640 3.1056 4.1774 0
M  V30 65 Fe -1.2568 3.8244 3.7528 0
M  V30 66 Ag -3.3384 4.6376 2.9566 0
M  V30 67 Ag 0.7113 3.5788 -3.1279 0
M  V30 68 Fe 1.7130 1.4889 -3.6543 0
M  V30 69 Ag 2.7087 -0.6045 -4.1785 0
M  V30 70 Ag -3.1956 6.7848 1.6823 0
M  V30 71 Fe -1.0109 7.6840 1.4835 0
M  V30 72 Ag 1.2871 8.1853 1.1858 0
M  V30 73 Ba 1.9940 1.7502 2.3250 0
M  V30 74 Ga 1.0487 0.6156 2.3225 0
M  V30 75 Ba 0.1496 -0.5493 2.2005 0
M  V30 76 Ba -3.2616 -5.2396 0.1441 0
M  V30 77 Ga -3.2515 -4.4360 -1.1169 0
M  V30 78 Ba -3.4019 -3.5817 -2.3350 0
M  V30 79 Ba 3.7709 3.4777 2.1833 0
M  V30 80 Ga 3.9022 4.7124 1.3797 0
M  V30 81 Ba 3.9097 5.9929 0.6399 0
M  V30 82 Ba 2.9048 4.6279 4.0643 0
M  V30 83 Ga 3.0026 5.9194 3.3657 0
M  V30 84 Ba 3.0563 7.1298 2.5305 0
M  V30 85 Ba -1.3028 -7.5286 1.9816 0
M  V30 86 Ga 0.1555 -7.7562 1.9225 0
M  V30 87 Ba 1.6183 -7.9412 1.8332 0
M  V30 88 Ba -2.1468 5.4779 -2.4248 0
M  V30 89 Ga -3.1334 5.6256 -1.3347 0
M  V30 90 Ba -4.0995 5.7576 -0.2246 0
M  V30 91 Ba 0.4051 5.9420 -2.7101 0
M  V30 92 Ga 1.3299 6.6196 -1.7748 0
M  V30 93 Ba 2.2673 7.3267 -0.8746 0
M  V30 94 Ba 1.2386 -2.1322 -5.4502 0
M  V30 95 Ga -0.2250 -2.2825 -5.3590 0
M  V30 96 Ba -1.6807 -2.4533 -5.2008 0
M  V30 97 Ba -2.7443 -5.4303 2.5632 0
M  V30 98 Ga -2.4571 -4.0823 3.0991 0
M  V30 99 Ba -2.1602 -2.7323 3.6244 0
M  V30 END ATOM
M  V30 BEGIN BOND
M  V30 1 1 1 2
M  V30 2 1 1 3
M  V30 3 1 1 4
M  V30 4 1 1 5
M  V30 5 1 6 7
M  V30 6 1 6 8
M  V30 7 1 6 9
M  V30 8 1 6 10
M  V30 9 1 11 12
M  V30 10 1 11 13
M  V30 11 1 11 14
M  V30 12 1 11 15
M  V30 13 1 16 17
M  V30 14 1 16 18
M  V30 15 1 16 19
M  V30 16 1 16 20
M  V30 17 1 21 22
M  V30 18 1 21 23
M  V30 19 1 21 24
M  V30 20 1 21 25
M  V30 21 1 26 27
M  V30 22 1 26 28
M  V30 23 1 26 29
M  V30 24 1 26 30
M  V30 25 1 31 32
M  V30 26 1 31 33
M  V30 27 1 31 34
M  V30 28 1 31 35
M  V30 29 1 36 37
M  V30 30 1 36 38
M  V30 31 1 36 39
M  V30 32 1 36 40
M  V30 33 1 41 42
M  V30 34 1 41 43
M  V30 35 1 41 44
M  V30 36 1 41 45
M  V30 37 1 46 47
M  V30 38 1 47 48
M  V30 39 1 49 50
M  V30 40 1 50 51
M  V30 41 1 52 53
M  V30 42 1 53 54
M  V30 43 1 55 56
M  V30 44 1 56 57
M  V30 45 1 58 59
M  V30 46 1 59 60
M  V30 47 1 61 62
M  V30 48 1 62 63
M  V30 49 1 64 65
M  V30 50 1 65 66
M  V30 51 1 67 68
M  V30 52 1 68 69
M  V30 53 1 70 71
M  V30 54 1 71 72
M  V30 55 1 73 74
M  V30 56 1 74 75
M  V30 57 1 76 77
M  V30 58 1 77 78
M  V30 59 1 79 80
M  V30 60 1 80 81
M  V30 61 1 82 83
M  V30 62 1 83 84
M  V30 63 1 85 86
M  V30 64 1 86 87
M  V30 65 1 88 89
M  V30 66 1 89 90
M  V30 67 1 91 92
M  V30 68 1 92 93
M  V30 69 1 94 95
M  V30 70 1 95 96
M  V30 71 1 97 98
M  V30 72 1 98 99
M  V30 73 1 2 46
M  V30 74 1 3 91
M  V30 75 1 4 67
M  V30 76 1 5 88
M  V30 77 1 7 73
M  V30 78 1 8 82
M  V30 79 1 9 64
M  V30 80 1 10 79
M  V30 81 1 12 58
M  V30 82 1 13 97
M  V30 83 1 14 85
M  V30 84 1 15 76
M  V30 85 1 17 87
M  V30 86 1 18 55
M  V30 87 1 19 52
M  V30 88 1 20 61
M  V30 89 1 22 75
M  V30 90 1 23 99
M  V30 91 1 24 54
M  V30 92 1 25 49
M  V30 93 1 27 57
M  V30 94 1 28 94
M  V30 95 1 29 69
M  V30 96 1 30 63
M  V30 97 1 32 48
M  V30 98 1 33 96
M  V30 99 1 34 78
M  V30 100 1 35 60
M  V30 101 1 37 51
M  V30 102 1 38 70
M  V30 103 1 39 66
M  V30 104 1 40 90
M  V30 105 1 42 84
M  V30 106 1 43 93
M  V30 107 1 44 72
M  V30 108 1 45 81
M  V30 END BOND
M  V30 END CTAB
M  END

$$$$
