
     RDKit          3D

  0  0  0  0  0  0  0  0  0  0999 V3000
M  V30 BEGIN CTAB
M  V30 COUNTS 99 108 0 0 0
M  V30 BEGIN ATOM
M  V30 1 Pd -1.1059 2.0760 1.2266 0
M  V30 2 Pb -2.0139 2.3396 1.5610 0
M  V30 3 Pb -0.2071 1.8713 0.8373 0
M  V30 4 Pb -1.0869 2.8723 0.6288 0
M  V30 5 Pb -1.1436 1.2137 1.7418 0
M  V30 6 Pd 6.1992 2.0952 3.9588 0
M  V30 7 Pb 6.3495 1.1968 3.5542 0
M  V30 8 Pb 6.5729 2.5156 3.1307 0
M  V30 9 Pb 5.7880 1.6573 4.7646 0
M  V30 10 Pb 6.0151 3.0181 4.3035 0
M  V30 11 Pd -4.4594 -5.0986 -0.7525 0
M  V30 12 Pb -4.7863 -5.0433 0.1830 0
M  V30 13 Pb -3.7137 -5.6886 -0.4546 0
M  V30 14 Pb -4.0913 -5.1898 -1.6769 0
M  V30 15 Pb -5.1323 -4.3822 -1.0252 0
M  V30 16 Pd -0.0495 -2.2184 -6.1583 0
M  V30 17 Pb -0.4266 -3.1071 -5.9104 0
M  V30 18 Pb 0.1938 -1.2472 -6.3471 0
M  V30 19 Pb 0.6594 -2.3118 -5.4536 0
M  V30 20 Pb -0.7229 -2.1758 -6.8874 0
M  V30 21 Pd 2.8250 -4.1488 0.9956 0
M  V30 22 Pb 3.6477 -3.6083 1.1569 0
M  V30 23 Pb 2.0397 -4.7516 0.8545 0
M  V30 24 Pb 2.8662 -3.9163 0.0195 0
M  V30 25 Pb 2.7737 -4.3075 1.9832 0
M  V30 26 Pd -2.4507 2.9788 -5.9473 0
M  V30 27 Pb -1.5692 2.5592 -6.2357 0
M  V30 28 Pb -3.3357 3.2102 -5.5486 0
M  V30 29 Pb -2.0254 3.4431 -5.1731 0
M  V30 30 Pb -2.9050 2.5460 -6.7177 0
M  V30 31 Pd -6.0666 0.5022 0.1529 0
M  V30 32 Pb -5.7585 1.2850 0.6928 0
M  V30 33 Pb -6.0518 1.0606 -0.6802 0
M  V30 34 Pb -6.2770 -0.3469 -0.3728 0
M  V30 35 Pb -6.1440 -0.0128 0.9975 0
M  V30 36 Pd 1.6337 -0.8266 5.0122 0
M  V30 37 Pb 1.9351 -1.7827 4.9731 0
M  V30 38 Pb 1.3047 0.1126 5.0230 0
M  V30 39 Pb 2.4573 -0.5550 5.5205 0
M  V30 40 Pb 0.8197 -1.0411 4.4736 0
M  V30 41 Pd 3.4944 4.7727 1.4198 0
M  V30 42 Pb 4.3959 4.6835 1.0045 0
M  V30 43 Pb 3.1224 4.0866 0.7911 0
M  V30 44 Pb 2.6469 4.7581 1.9373 0
M  V30 45 Pb 3.9129 5.2842 2.1682 0
M  V30 46 Ag 6.4316 0.5388 3.2109 0
M  V30 47 Fe 5.3788 -1.3594 2.2552 0
M  V30 48 Ag 4.2775 -3.2361 1.3117 0
M  V30 49 Ag 1.2118 -2.4271 -4.9533 0
M  V30 50 Fe 2.0170 -3.0669 -2.8073 0
M  V30 51 Ag 2.9248 -3.6883 -0.6972 0
M  V30 52 Ag -5.0299 -4.8641 0.8565 0
M  V30 53 Fe -5.7281 -2.7903 1.7168 0
M  V30 54 Ag -6.1865 -0.4892 1.5606 0
M  V30 55 Ag -1.2425 -2.0303 -7.3930 0
M  V30 56 Fe -2.5283 -0.0990 -7.7732 0
M  V30 57 Ag -3.1576 2.1056 -7.2545 0
M  V30 58 Ag -3.7440 -5.3103 -2.3303 0
M  V30 59 Fe -2.2790 -4.5704 -4.0447 0
M  V30 60 Ag -0.8090 -3.7133 -5.6989 0
M  V30 61 Ag -1.0413 3.3918 0.0954 0
M  V30 62 Fe -1.3728 3.7120 -2.2306 0
M  V30 63 Ag -1.7754 3.8016 -4.5659 0
M  V30 64 Ag 1.0468 0.8077 4.9501 0
M  V30 65 Fe 1.3782 2.8327 3.7719 0
M  V30 66 Ag 2.0859 4.6296 2.4057 0
M  V30 67 Ag -3.9749 3.2783 -5.1650 0
M  V30 68 Fe -5.0770 2.4359 -3.2357 0
M  V30 69 Ag -6.0675 1.5118 -1.2830 0
M  V30 70 Ag -3.0929 -6.0464 -0.2445 0
M  V30 71 Fe -0.8038 -5.7013 0.2777 0
M  V30 72 Ag 1.4685 -5.2314 0.7762 0
M  V30 73 Ba -2.6946 2.5767 1.7786 0
M  V30 74 Ga -4.0905 2.2133 1.4601 0
M  V30 75 Ba -5.4771 1.8287 1.1259 0
M  V30 76 Ba 2.7475 -4.3835 2.7307 0
M  V30 77 Ga 2.4445 -3.4516 3.8380 0
M  V30 78 Ba 2.1389 -2.5068 4.9337 0
M  V30 79 Ba 0.3473 -0.5087 -6.4988 0
M  V30 80 Ga -0.3226 0.8317 -6.4459 0
M  V30 81 Ba -0.9111 2.2108 -6.4273 0
M  V30 82 Ba -5.6358 -3.8368 -1.2304 0
M  V30 83 Ga -5.9860 -2.4049 -0.9525 0
M  V30 84 Ba -6.4408 -0.9873 -0.7686 0
M  V30 85 Ba 5.8670 3.7367 4.4698 0
M  V30 86 Ga 5.0770 4.7144 3.6954 0
M  V30 87 Ba 4.2509 5.5348 2.7878 0
M  V30 88 Ba 6.7981 2.8466 2.4954 0
M  V30 89 Ga 6.0337 3.7106 1.5802 0
M  V30 90 Ba 5.1020 4.5465 0.8054 0
M  V30 91 Ba 5.4847 1.3007 5.3573 0
M  V30 92 Ga 4.2701 0.4911 5.6145 0
M  V30 93 Ba 3.0654 -0.3226 5.9035 0
M  V30 94 Ba -1.2094 0.5417 2.0803 0
M  V30 95 Ga -0.4942 -0.2899 3.0719 0
M  V30 96 Ba 0.2014 -1.1404 4.0615 0
M  V30 97 Ba 0.4469 1.8108 0.4716 0
M  V30 98 Ga 1.6674 2.6449 0.4278 0
M  V30 99 Ba 2.8790 3.4924 0.3975 0
M  V30 END ATOM
M  V30 BEGIN BOND
M  V30 1 1 1 2
M  V30 2 1 1 3
M  V30 3 1 1 4
M  V30 4 1 1 5
M  V30 5 1 6 7
M  V30 6 1 6 8
M  V30 7 1 6 9
M  V30 8 1 6 10
M  V30 9 1 11 12
M  V30 10 1 11 13
M  V30 11 1 11 14
M  V30 12 1 11 15
M  V30 13 1 16 17
M  V30 14 1 16 18
M  V30 15 1 16 19
M  V30 16 1 16 20
M  V30 17 1 21 22
M  V30 18 1 21 23
M  V30 19 1 21 24
M  V30 20 1 21 25
M  V30 21 1 26 27
M  V30 22 1 26 28
M  V30 23 1 26 29
M  V30 24 1 26 30
M  V30 25 1 31 32
M  V30 26 1 31 33
M  V30 27 1 31 34
M  V30 28 1 31 35
M  V30 29 1 36 37
M  V30 30 1 36 38
M  V30 31 1 36 39
M  V30 32 1 36 40
M  V30 33 1 41 42
M  V30 34 1 41 43
M  V30 35 1 41 44
M  V30 36 1 41 45
M  V30 37 1 46 47
M  V30 38 1 47 48
M  V30 39 1 49 50
M  V30 40 1 50 51
M  V30 41 1 52 53
M  V30 42 1 53 54
M  V30 43 1 55 56
M  V30 44 1 56 57
M  V30 45 1 58 59
M  V30 46 1 59 60
M  V30 47 1 61 62
M  V30 48 1 62 63
M  V30 49 1 64 65
M  V30 50 1 65 66
M  V30 51 1 67 68
M  V30 52 1 68 69
M  V30 53 1 70 71
M  V30 54 1 71 72
M  V30 55 1 73 74
M  V30 56 1 74 75
M  V30 57 1 76 77
M  V30 58 1 77 78
M  V30 59 1 79 80
M  V30 60 1 80 81
M  V30 61 1 82 83
M  V30 62 1 83 84
M  V30 63 1 85 86
M  V30 64 1 86 87
M  V30 65 1 88 89
M  V30 66 1 89 90
M  V30 67 1 91 92
M  V30 68 1 92 93
M  V30 69 1 94 95
M  V30 70 1 95 96
M  V30 71 1 97 98
M  V30 72 1 98 99
M  V30 73 1 2 73
M  V30 74 1 3 97
M  V30 75 1 4 61
M  V30 76 1 5 94
M  V30 77 1 7 46
M  V30 78 1 8 88
M  V30 79 1 9 91
M  V30 80 1 10 85
M  V30 81 1 12 52
M  V30 82 1 13 70
M  V30 83 1 14 58
M  V30 84 1 15 82
M  V30 85 1 17 60
M  V30 86 1 18 79
M  V30 87 1 19 49
M  V30 88 1 20 55
M  V30 89 1 22 48
M  V30 90 1 23 72
M  V30 91 1 24 51
M  V30 92 1 25 76
M  V30 93 1 27 81
M  V30 94 1 28 67
M  V30 95 1 29 63
M  V30 96 1 30 57
M  V30 97 1 32 75
M  V30 98 1 33 69
M  V30 99 1 34 84
M  V30 100 1 35 54
M  V30 101 1 37 78
M  V30 102 1 38 64
M  V30 103 1 39 93
M  V30 104 1 40 96
M  V30 105 1 42 90
M  V30 106 1 43 99
M  V30 107 1 44 66
M  V30 108 1 45 87
M  V30 END BOND
M  V30 END CTAB
M  END

$$$$
