
     RDKit          3D

  0  0  0  0  0  0  0  0  0  0999 V3000
M  V30 BEGIN CTAB
M  V30 COUNTS 99 108 0 0 0
M  V30 BEGIN ATOM
M  V30 1 Pd -2.9367 1.1445 -1.5830 0
M  V30 2 Pb -3.6853 1.2322 -2.2390 0
M  V30 3 Pb -2.1009 1.0389 -1.0407 0
M  V30 4 Pb -2.6122 2.0407 -1.8799 0
M  V30 5 Pb -3.2568 0.2360 -1.2987 0
M  V30 6 Pd 0.6127 2.3999 6.5005 0
M  V30 7 Pb 0.8439 1.4413 6.6823 0
M  V30 8 Pb 0.3613 3.3483 6.3041 0
M  V30 9 Pb -0.3023 2.2124 6.8476 0
M  V30 10 Pb 1.4758 2.5638 6.0228 0
M  V30 11 Pd 0.0587 -5.3582 -3.1033 0
M  V30 12 Pb -0.9011 -5.6163 -3.0698 0
M  V30 13 Pb 0.1770 -5.6671 -2.1619 0
M  V30 14 Pb 1.0229 -5.0965 -3.1318 0
M  V30 15 Pb -0.0946 -4.9594 -4.0233 0
M  V30 16 Pd 5.5881 -0.3607 -1.0283 0
M  V30 17 Pb 5.3382 -1.2163 -1.4806 0
M  V30 18 Pb 5.6374 0.1033 -1.9311 0
M  V30 19 Pb 5.4792 -0.7916 -0.1308 0
M  V30 20 Pb 5.8277 0.5006 -0.5914 0
M  V30 21 Pd 0.6071 -2.9848 4.2585 0
M  V30 22 Pb 0.7125 -2.3822 5.0558 0
M  V30 23 Pb 0.5573 -3.6606 3.5227 0
M  V30 24 Pb 1.5561 -2.7902 4.0019 0
M  V30 25 Pb -0.3464 -3.2078 4.4854 0
M  V30 26 Pd 3.0865 3.6662 -4.3330 0
M  V30 27 Pb 3.8614 3.0142 -4.3649 0
M  V30 28 Pb 2.5735 3.1498 -5.0217 0
M  V30 29 Pb 2.2669 4.2110 -4.1836 0
M  V30 30 Pb 3.5692 4.1744 -3.6266 0
M  V30 31 Pd -2.8169 -1.1597 -5.9343 0
M  V30 32 Pb -3.4609 -0.4257 -5.7163 0
M  V30 33 Pb -2.1013 -0.5187 -6.2223 0
M  V30 34 Pb -2.1654 -1.9272 -6.0607 0
M  V30 35 Pb -3.5086 -1.8128 -5.6445 0
M  V30 36 Pd -4.3852 -1.1398 3.0481 0
M  V30 37 Pb -4.0686 -1.9830 3.4864 0
M  V30 38 Pb -4.5861 -0.2568 2.6297 0
M  V30 39 Pb -4.3877 -0.7090 3.9484 0
M  V30 40 Pb -4.3352 -1.5352 2.1303 0
M  V30 41 Pd 0.2092 3.9002 2.0760 0
M  V30 42 Pb 0.0601 4.6087 2.7614 0
M  V30 43 Pb 0.3172 3.1024 1.4836 0
M  V30 44 Pb -0.7463 3.9462 1.7936 0
M  V30 45 Pb 1.1324 3.7776 2.4445 0
M  V30 46 Ag 5.3664 -1.0963 0.5469 0
M  V30 47 Fe 3.8310 -1.8829 2.1824 0
M  V30 48 Ag 2.2679 -2.6608 3.7957 0
M  V30 49 Ag -1.6368 -5.6804 -3.1257 0
M  V30 50 Fe -3.2207 -4.2757 -4.1579 0
M  V30 51 Ag -3.9045 -2.3737 -5.3667 0
M  V30 52 Ag 5.9253 1.2083 -0.3940 0
M  V30 53 Fe 5.1394 3.1834 -1.4100 0
M  V30 54 Ag 3.9637 4.4078 -3.0441 0
M  V30 55 Ag 1.7466 -4.9013 -3.1358 0
M  V30 56 Fe 3.4544 -3.3833 -2.4901 0
M  V30 57 Ag 5.1428 -1.8493 -1.8314 0
M  V30 58 Ag -1.0065 2.0137 6.9931 0
M  V30 59 Fe -2.7891 0.8467 5.9538 0
M  V30 60 Ag -4.3187 -0.3683 4.6104 0
M  V30 61 Ag -2.3386 2.6918 -2.1264 0
M  V30 62 Fe -0.4494 3.7628 -3.0769 0
M  V30 63 Ag 1.6021 4.4983 -4.0087 0
M  V30 64 Ag -4.6213 0.4255 2.3275 0
M  V30 65 Fe -3.2101 2.2779 1.8837 0
M  V30 66 Ag -1.4726 3.8714 1.6362 0
M  V30 67 Ag 2.1452 2.7900 -5.5245 0
M  V30 68 Fe 0.3052 1.3553 -5.9838 0
M  V30 69 Ag -1.5344 -0.0780 -6.4491 0
M  V30 70 Ag 0.2509 -5.8434 -1.4387 0
M  V30 71 Fe 0.3967 -5.0299 0.7870 0
M  V30 72 Ag 0.5406 -4.2084 3.0100 0
M  V30 73 Ba 0.9780 0.7213 6.8556 0
M  V30 74 Ga 0.8993 -0.6098 6.2134 0
M  V30 75 Ba 0.8596 -1.9915 5.6850 0
M  V30 76 Ba -4.1706 1.3069 -2.8054 0
M  V30 77 Ga -4.1225 0.7226 -4.1594 0
M  V30 78 Ba -3.9652 0.0761 -5.4765 0
M  V30 79 Ba -1.0571 -3.4302 4.6129 0
M  V30 80 Ga -2.4205 -2.9949 4.2342 0
M  V30 81 Ba -3.7899 -2.5704 3.8647 0
M  V30 82 Ba 5.6917 0.4418 -2.6161 0
M  V30 83 Ga 5.0277 1.4879 -3.4505 0
M  V30 84 Ba 4.4380 2.5133 -4.3629 0
M  V30 85 Ba -0.2051 -4.6608 -4.7182 0
M  V30 86 Ga -0.9655 -3.5647 -5.3888 0
M  V30 87 Ba -1.6762 -2.5054 -6.1647 0
M  V30 88 Ba 2.0593 2.7166 5.5766 0
M  V30 89 Ga 2.0131 3.1909 4.1790 0
M  V30 90 Ba 1.7855 3.6595 2.7972 0
M  V30 91 Ba 0.1873 4.0509 6.1059 0
M  V30 92 Ga 0.0511 4.6399 4.7630 0
M  V30 93 Ba -0.0430 5.0527 3.3529 0
M  V30 94 Ba -3.4901 -0.4522 -1.0968 0
M  V30 95 Ga -3.8892 -1.1218 0.1597 0
M  V30 96 Ba -4.2864 -1.7807 1.4225 0
M  V30 97 Ba -1.4289 0.9580 -0.7121 0
M  V30 98 Ga -0.5486 1.7261 0.1911 0
M  V30 99 Ba 0.3591 2.4637 1.0927 0
M  V30 END ATOM
M  V30 BEGIN BOND
M  V30 1 1 1 2
M  V30 2 1 1 3
M  V30 3 1 1 4
M  V30 4 1 1 5
M  V30 5 1 6 7
M  V30 6 1 6 8
M  V30 7 1 6 9
M  V30 8 1 6 10
M  V30 9 1 11 12
M  V30 10 1 11 13
M  V30 11 1 11 14
M  V30 12 1 11 15
M  V30 13 1 16 17
M  V30 14 1 16 18
M  V30 15 1 16 19
M  V30 16 1 16 20
M  V30 17 1 21 22
M  V30 18 1 21 23
M  V30 19 1 21 24
M  V30 20 1 21 25
M  V30 21 1 26 27
M  V30 22 1 26 28
M  V30 23 1 26 29
M  V30 24 1 26 30
M  V30 25 1 31 32
M  V30 26 1 31 33
M  V30 27 1 31 34
M  V30 28 1 31 35
M  V30 29 1 36 37
M  V30 30 1 36 38
M  V30 31 1 36 39
M  V30 32 1 36 40
M  V30 33 1 41 42
M  V30 34 1 41 43
M  V30 35 1 41 44
M  V30 36 1 41 45
M  V30 37 1 46 47
M  V30 38 1 47 48
M  V30 39 1 49 50
M  V30 40 1 50 51
M  V30 41 1 52 53
M  V30 42 1 53 54
M  V30 43 1 55 56
M  V30 44 1 56 57
M  V30 45 1 58 59
M  V30 46 1 59 60
M  V30 47 1 61 62
M  V30 48 1 62 63
M  V30 49 1 64 65
M  V30 50 1 65 66
M  V30 51 1 67 68
M  V30 52 1 68 69
M  V30 53 1 70 71
M  V30 54 1 71 72
M  V30 55 1 73 74
M  V30 56 1 74 75
M  V30 57 1 76 77
M  V30 58 1 77 78
M  V30 59 1 79 80
M  V30 60 1 80 81
M  V30 61 1 82 83
M  V30 62 1 83 84
M  V30 63 1 85 86
M  V30 64 1 86 87
M  V30 65 1 88 89
M  V30 66 1 89 90
M  V30 67 1 91 92
M  V30 68 1 92 93
M  V30 69 1 94 95
M  V30 70 1 95 96
M  V30 71 1 97 98
M  V30 72 1 98 99
M  V30 73 1 2 76
M  V30 74 1 3 97
M  V30 75 1 4 61
M  V30 76 1 5 94
M  V30 77 1 7 73
M  V30 78 1 8 91
M  V30 79 1 9 58
M  V30 80 1 10 88
M  V30 81 1 12 49
M  V30 82 1 13 70
M  V30 83 1 14 55
M  V30 84 1 15 85
M  V30 85 1 17 57
M  V30 86 1 18 82
M  V30 87 1 19 46
M  V30 88 1 20 52
M  V30 89 1 22 75
M  V30 90 1 23 72
M  V30 91 1 24 48
M  V30 92 1 25 79
M  V30 93 1 27 84
M  V30 94 1 28 67
M  V30 95 1 29 63
M  V30 96 1 30 54
M  V30 97 1 32 78
M  V30 98 1 33 69
M  V30 99 1 34 87
M  V30 100 1 35 51
M  V30 101 1 37 81
M  V30 102 1 38 64
M  V30 103 1 39 60
M  V30 104 1 40 96
M  V30 105 1 42 93
M  V30 106 1 43 99
M  V30 107 1 44 66
M  V30 108 1 45 90
M  V30 END BOND
M  V30 END CTAB
M  END

$$$$
