
     RDKit          3D

  0  0  0  0  0  0  0  0  0  0999 V3000
M  V30 BEGIN CTAB
M  V30 COUNTS 99 108 0 0 0
M  V30 BEGIN ATOM
M  V30 1 Pd -2.1344 1.9583 -1.9577 0
M  V30 2 Pb -1.7763 2.6258 -2.6039 0
M  V30 3 Pb -1.5509 2.3866 -1.2706 0
M  V30 4 Pb -2.6420 1.5194 -2.7026 0
M  V30 5 Pb -2.4451 1.2629 -1.3064 0
M  V30 6 Pd -1.0237 3.5498 7.8715 0
M  V30 7 Pb -0.3526 2.8095 7.8446 0
M  V30 8 Pb -0.3107 4.2143 7.6526 0
M  V30 9 Pb -1.7937 2.9119 7.8522 0
M  V30 10 Pb -1.6818 4.2963 7.8180 0
M  V30 11 Pd 5.2476 -2.8881 -0.3622 0
M  V30 12 Pb 5.3778 -1.9066 -0.5055 0
M  V30 13 Pb 5.1437 -2.7864 0.6292 0
M  V30 14 Pb 5.0749 -3.8675 -0.2842 0
M  V30 15 Pb 5.3061 -2.9804 -1.3574 0
M  V30 16 Pd -0.1074 -6.4457 -2.8720 0
M  V30 17 Pb 0.6672 -6.8828 -2.4232 0
M  V30 18 Pb -0.8280 -5.8862 -3.3196 0
M  V30 19 Pb -0.4163 -6.1580 -1.9675 0
M  V30 20 Pb 0.2575 -6.6870 -3.7640 0
M  V30 21 Pd 1.2392 -2.4305 3.8234 0
M  V30 22 Pb 1.5180 -1.8412 4.5807 0
M  V30 23 Pb 2.2024 -2.5149 3.5465 0
M  V30 24 Pb 0.8892 -3.0374 3.1085 0
M  V30 25 Pb 0.2952 -2.3540 4.1466 0
M  V30 26 Pd -1.1729 -1.6895 -6.2474 0
M  V30 27 Pb -1.5577 -2.4500 -5.6910 0
M  V30 28 Pb -0.7497 -0.9803 -6.8165 0
M  V30 29 Pb -1.8261 -1.0518 -5.8228 0
M  V30 30 Pb -0.5888 -2.3454 -6.7117 0
M  V30 31 Pd 3.3664 1.2160 -5.9675 0
M  V30 32 Pb 2.8848 2.0815 -5.8747 0
M  V30 33 Pb 2.7410 1.0103 -6.7221 0
M  V30 34 Pb 3.7879 0.3103 -5.9776 0
M  V30 35 Pb 3.9013 1.3950 -5.1397 0
M  V30 36 Pd -3.3589 0.9316 3.6077 0
M  V30 37 Pb -3.0010 0.0816 3.9972 0
M  V30 38 Pb -3.7629 1.7498 3.1833 0
M  V30 39 Pb -3.5112 1.2353 4.5576 0
M  V30 40 Pb -3.2589 0.5466 2.6866 0
M  V30 41 Pd -1.9831 5.9292 2.0997 0
M  V30 42 Pb -1.1711 6.3091 2.5426 0
M  V30 43 Pb -1.4010 5.3556 1.5279 0
M  V30 44 Pb -2.7956 5.4151 1.8299 0
M  V30 45 Pb -2.5337 6.4111 2.7749 0
M  V30 46 Ag 0.1659 2.2733 7.7702 0
M  V30 47 Fe 0.9653 0.4268 6.5097 0
M  V30 48 Ag 1.6659 -1.4057 5.1723 0
M  V30 49 Ag -1.4218 3.0781 -3.0777 0
M  V30 50 Fe 0.4744 3.1037 -4.4938 0
M  V30 51 Ag 2.4266 2.6549 -5.7541 0
M  V30 52 Ag -0.5932 -5.9392 -1.2741 0
M  V30 53 Fe 0.0110 -4.6911 0.6546 0
M  V30 54 Ag 0.5088 -3.4850 2.6394 0
M  V30 55 Ag 5.3191 -2.9931 -2.1083 0
M  V30 56 Fe 4.7625 -1.7844 -4.0758 0
M  V30 57 Ag 4.1022 -0.3590 -5.8571 0
M  V30 58 Ag -2.1420 4.8553 7.6433 0
M  V30 59 Fe -2.7450 5.9934 5.6595 0
M  V30 60 Ag -2.8699 6.6541 3.3921 0
M  V30 61 Ag 0.1171 4.7252 7.3113 0
M  V30 62 Fe 0.0203 5.7915 5.1933 0
M  V30 63 Ag -0.6135 6.4815 3.0127 0
M  V30 64 Ag 5.4465 -1.1934 -0.7296 0
M  V30 65 Fe 4.9190 0.2496 -2.5428 0
M  V30 66 Ag 4.2628 1.4547 -4.4833 0
M  V30 67 Ag 0.5112 -6.6959 -4.4582 0
M  V30 68 Fe 0.4040 -5.0162 -6.1043 0
M  V30 69 Ag -0.1978 -2.9145 -6.9797 0
M  V30 70 Ag 4.8812 -4.5888 -0.2939 0
M  V30 71 Fe 3.1782 -6.0287 -1.0948 0
M  V30 72 Ag 1.2839 -7.0805 -2.0539 0
M  V30 73 Ba -0.4065 -2.3227 4.4112 0
M  V30 74 Ga -1.5697 -1.4172 4.3323 0
M  V30 75 Ba -2.7751 -0.5658 4.3038 0
M  V30 76 Ba -1.3764 -5.4541 -3.6350 0
M  V30 77 Ga -1.5531 -4.2286 -4.4736 0
M  V30 78 Ba -1.8805 -3.0261 -5.3002 0
M  V30 79 Ba -2.4119 2.5000 7.7358 0
M  V30 80 Ga -3.0106 1.9232 6.5072 0
M  V30 81 Ba -3.6421 1.3397 5.2985 0
M  V30 82 Ba -2.9980 1.2119 -3.2904 0
M  V30 83 Ga -2.6450 0.2890 -4.3941 0
M  V30 84 Ba -2.3767 -0.6237 -5.5295 0
M  V30 85 Ba -2.6557 0.7117 -0.8401 0
M  V30 86 Ga -2.9294 0.5152 0.5993 0
M  V30 87 Ba -3.2250 0.2079 2.0148 0
M  V30 88 Ba -4.0872 2.3076 2.7876 0
M  V30 89 Ga -3.7452 3.6475 2.2598 0
M  V30 90 Ba -3.4057 4.9896 1.7360 0
M  V30 91 Ba -1.0561 2.7273 -0.8243 0
M  V30 92 Ga -1.0358 3.8139 0.1694 0
M  V30 93 Ba -0.9380 4.8897 1.1703 0
M  V30 94 Ba -0.3835 -0.5166 -7.2840 0
M  V30 95 Ga 0.9118 0.1975 -7.2653 0
M  V30 96 Ba 2.2072 0.9114 -7.2426 0
M  V30 97 Ba 5.0680 -2.7327 1.3754 0
M  V30 98 Ga 3.9647 -2.6420 2.3579 0
M  V30 99 Ba 2.9483 -2.5493 3.4295 0
M  V30 END ATOM
M  V30 BEGIN BOND
M  V30 1 1 1 2
M  V30 2 1 1 3
M  V30 3 1 1 4
M  V30 4 1 1 5
M  V30 5 1 6 7
M  V30 6 1 6 8
M  V30 7 1 6 9
M  V30 8 1 6 10
M  V30 9 1 11 12
M  V30 10 1 11 13
M  V30 11 1 11 14
M  V30 12 1 11 15
M  V30 13 1 16 17
M  V30 14 1 16 18
M  V30 15 1 16 19
M  V30 16 1 16 20
M  V30 17 1 21 22
M  V30 18 1 21 23
M  V30 19 1 21 24
M  V30 20 1 21 25
M  V30 21 1 26 27
M  V30 22 1 26 28
M  V30 23 1 26 29
M  V30 24 1 26 30
M  V30 25 1 31 32
M  V30 26 1 31 33
M  V30 27 1 31 34
M  V30 28 1 31 35
M  V30 29 1 36 37
M  V30 30 1 36 38
M  V30 31 1 36 39
M  V30 32 1 36 40
M  V30 33 1 41 42
M  V30 34 1 41 43
M  V30 35 1 41 44
M  V30 36 1 41 45
M  V30 37 1 46 47
M  V30 38 1 47 48
M  V30 39 1 49 50
M  V30 40 1 50 51
M  V30 41 1 52 53
M  V30 42 1 53 54
M  V30 43 1 55 56
M  V30 44 1 56 57
M  V30 45 1 58 59
M  V30 46 1 59 60
M  V30 47 1 61 62
M  V30 48 1 62 63
M  V30 49 1 64 65
M  V30 50 1 65 66
M  V30 51 1 67 68
M  V30 52 1 68 69
M  V30 53 1 70 71
M  V30 54 1 71 72
M  V30 55 1 73 74
M  V30 56 1 74 75
M  V30 57 1 76 77
M  V30 58 1 77 78
M  V30 59 1 79 80
M  V30 60 1 80 81
M  V30 61 1 82 83
M  V30 62 1 83 84
M  V30 63 1 85 86
M  V30 64 1 86 87
M  V30 65 1 88 89
M  V30 66 1 89 90
M  V30 67 1 91 92
M  V30 68 1 92 93
M  V30 69 1 94 95
M  V30 70 1 95 96
M  V30 71 1 97 98
M  V30 72 1 98 99
M  V30 73 1 2 49
M  V30 74 1 3 91
M  V30 75 1 4 82
M  V30 76 1 5 85
M  V30 77 1 7 46
M  V30 78 1 8 61
M  V30 79 1 9 79
M  V30 80 1 10 58
M  V30 81 1 12 64
M  V30 82 1 13 97
M  V30 83 1 14 70
M  V30 84 1 15 55
M  V30 85 1 17 72
M  V30 86 1 18 76
M  V30 87 1 19 52
M  V30 88 1 20 67
M  V30 89 1 22 48
M  V30 90 1 23 99
M  V30 91 1 24 54
M  V30 92 1 25 73
M  V30 93 1 27 78
M  V30 94 1 28 94
M  V30 95 1 29 84
M  V30 96 1 30 69
M  V30 97 1 32 51
M  V30 98 1 33 96
M  V30 99 1 34 57
M  V30 100 1 35 66
M  V30 101 1 37 75
M  V30 102 1 38 88
M  V30 103 1 39 81
M  V30 104 1 40 87
M  V30 105 1 42 63
M  V30 106 1 43 93
M  V30 107 1 44 90
M  V30 108 1 45 60
M  V30 END BOND
M  V30 END CTAB
M  END

$$$$
