
     RDKit          3D

  0  0  0  0  0  0  0  0  0  0999 V3000
M  V30 BEGIN CTAB
M  V30 COUNTS 99 108 0 0 0
M  V30 BEGIN ATOM
M  V30 1 Pd 4.3651 0.1252 0.8200 0
M  V30 2 Pb 4.9304 0.6114 0.1454 0
M  V30 3 Pb 3.9644 -0.4096 1.5658 0
M  V30 4 Pb 4.4109 0.8586 1.5018 0
M  V30 5 Pb 4.2569 -0.6162 0.1541 0
M  V30 6 Pd -4.4328 -5.9865 3.8766 0
M  V30 7 Pb -5.0353 -5.4057 3.3313 0
M  V30 8 Pb -4.5827 -5.4130 4.6778 0
M  V30 9 Pb -4.2254 -6.5354 3.0681 0
M  V30 10 Pb -3.7315 -6.4942 4.3990 0
M  V30 11 Pd -0.4279 3.9080 -6.2868 0
M  V30 12 Pb 0.4265 4.4290 -6.0984 0
M  V30 13 Pb -1.2440 3.3429 -6.3559 0
M  V30 14 Pb -1.0180 4.5299 -5.7741 0
M  V30 15 Pb 0.1050 3.2408 -6.7941 0
M  V30 16 Pd -3.2548 4.8030 0.4176 0
M  V30 17 Pb -3.6077 5.0323 -0.4856 0
M  V30 18 Pb -2.9154 5.7310 0.4316 0
M  V30 19 Pb -3.7558 3.9313 0.4319 0
M  V30 20 Pb -2.7074 4.5884 1.2591 0
M  V30 21 Pd -4.6715 -0.5706 -1.7353 0
M  V30 22 Pb -5.0066 -1.1745 -1.0094 0
M  V30 23 Pb -4.4546 -0.0058 -2.5305 0
M  V30 24 Pb -4.9037 0.2132 -1.1531 0
M  V30 25 Pb -4.3554 -1.3517 -2.2738 0
M  V30 26 Pd 2.1781 5.2202 2.7056 0
M  V30 27 Pb 1.8276 6.1302 2.5408 0
M  V30 28 Pb 3.0378 5.5416 2.3233 0
M  V30 29 Pb 2.6350 4.3521 2.9156 0
M  V30 30 Pb 1.2296 4.8839 2.9093 0
M  V30 31 Pd 4.9016 3.5913 -3.7533 0
M  V30 32 Pb 5.4706 2.9936 -3.1893 0
M  V30 33 Pb 5.0085 4.2763 -3.0365 0
M  V30 34 Pb 4.8526 2.9038 -4.4684 0
M  V30 35 Pb 4.2513 4.1729 -4.2812 0
M  V30 36 Pd 0.4647 -6.0117 -1.6724 0
M  V30 37 Pb -0.1673 -5.5882 -2.3202 0
M  V30 38 Pb 1.0453 -6.3909 -0.9550 0
M  V30 39 Pb -0.2883 -6.5892 -1.3614 0
M  V30 40 Pb 1.2050 -5.3840 -1.9159 0
M  V30 41 Pd 0.8567 -5.1779 5.6077 0
M  V30 42 Pb 0.3399 -4.6565 6.2816 0
M  V30 43 Pb 1.4772 -4.4085 5.4665 0
M  V30 44 Pb 1.3373 -5.6918 4.8991 0
M  V30 45 Pb 0.1546 -5.9032 5.6662 0
M  V30 46 Ag -5.4316 -4.9333 2.9059 0
M  V30 47 Fe -5.3694 -3.2779 1.2026 0
M  V30 48 Ag -5.3332 -1.6186 -0.4975 0
M  V30 49 Ag -4.0513 -1.9064 -2.6770 0
M  V30 50 Fe -2.3986 -3.6082 -2.7864 0
M  V30 51 Ag -0.7008 -5.2677 -2.7376 0
M  V30 52 Ag -2.6203 6.4017 0.4958 0
M  V30 53 Fe -0.5854 7.1696 1.3703 0
M  V30 54 Ag 1.5002 6.7628 2.3591 0
M  V30 55 Ag 0.5948 2.7583 -7.0662 0
M  V30 56 Fe 2.7851 2.2346 -6.3833 0
M  V30 57 Ag 4.7016 2.4533 -5.0351 0
M  V30 58 Ag -4.5062 -4.9912 5.2838 0
M  V30 59 Fe -2.5270 -4.3552 6.3960 0
M  V30 60 Ag -0.1874 -4.3273 6.6878 0
M  V30 61 Ag -1.5610 4.8856 -5.3987 0
M  V30 62 Fe -2.7186 5.1466 -3.3429 0
M  V30 63 Ag -3.7091 5.2636 -1.1890 0
M  V30 64 Ag -4.0207 -6.9195 2.4586 0
M  V30 65 Fe -2.4898 -7.0357 0.6486 0
M  V30 66 Ag -0.8694 -6.9714 -1.0844 0
M  V30 67 Ag 4.1626 -1.1489 -0.3689 0
M  V30 68 Fe 2.9826 -3.0268 -1.2241 0
M  V30 69 Ag 1.7696 -4.9035 -2.0345 0
M  V30 70 Ag 1.4388 -6.6282 -0.3653 0
M  V30 71 Fe 1.6467 -6.4226 1.9890 0
M  V30 72 Ag 1.6631 -6.0571 4.3330 0
M  V30 73 Ag 3.7826 -0.7511 2.2110 0
M  V30 74 Fe 2.8090 -2.3226 3.7034 0
M  V30 75 Ag 1.9041 -3.8112 5.3194 0
M  V30 76 Ag 3.6102 5.7606 1.9011 0
M  V30 77 Fe 4.4925 5.3498 -0.2593 0
M  V30 78 Ag 5.1334 4.7287 -2.4547 0
M  V30 79 Ag -1.8670 2.9387 -6.2902 0
M  V30 80 Fe -3.1166 1.6263 -4.7585 0
M  V30 81 Ag -4.3376 0.3283 -3.1916 0
M  V30 82 Ba 5.4434 0.8890 -0.3354 0
M  V30 83 Ga 5.6079 1.7387 -1.5345 0
M  V30 84 Ba 5.8814 2.5686 -2.7280 0
M  V30 85 Ba -4.2365 3.3496 0.4715 0
M  V30 86 Ga -4.5890 2.0507 -0.1459 0
M  V30 87 Ba -5.0750 0.7445 -0.6467 0
M  V30 88 Ba -3.1908 -6.8626 4.7883 0
M  V30 89 Ga -1.7889 -6.6199 5.2310 0
M  V30 90 Ba -0.3871 -6.4369 5.7018 0
M  V30 91 Ba 1.0747 4.8172 -5.9582 0
M  V30 92 Ga 2.4089 4.6541 -5.2963 0
M  V30 93 Ba 3.7720 4.6280 -4.6751 0
M  V30 94 Ba -2.2699 4.4331 1.8825 0
M  V30 95 Ga -0.8606 4.5682 2.4031 0
M  V30 96 Ba 0.5035 4.6405 3.0433 0
M  V30 97 Ba 4.3883 1.3252 2.0926 0
M  V30 98 Ga 3.7060 2.5609 2.5367 0
M  V30 99 Ba 3.0898 3.7808 3.1038 0
M  V30 END ATOM
M  V30 BEGIN BOND
M  V30 1 1 1 2
M  V30 2 1 1 3
M  V30 3 1 1 4
M  V30 4 1 1 5
M  V30 5 1 6 7
M  V30 6 1 6 8
M  V30 7 1 6 9
M  V30 8 1 6 10
M  V30 9 1 11 12
M  V30 10 1 11 13
M  V30 11 1 11 14
M  V30 12 1 11 15
M  V30 13 1 16 17
M  V30 14 1 16 18
M  V30 15 1 16 19
M  V30 16 1 16 20
M  V30 17 1 21 22
M  V30 18 1 21 23
M  V30 19 1 21 24
M  V30 20 1 21 25
M  V30 21 1 26 27
M  V30 22 1 26 28
M  V30 23 1 26 29
M  V30 24 1 26 30
M  V30 25 1 31 32
M  V30 26 1 31 33
M  V30 27 1 31 34
M  V30 28 1 31 35
M  V30 29 1 36 37
M  V30 30 1 36 38
M  V30 31 1 36 39
M  V30 32 1 36 40
M  V30 33 1 41 42
M  V30 34 1 41 43
M  V30 35 1 41 44
M  V30 36 1 41 45
M  V30 37 1 46 47
M  V30 38 1 47 48
M  V30 39 1 49 50
M  V30 40 1 50 51
M  V30 41 1 52 53
M  V30 42 1 53 54
M  V30 43 1 55 56
M  V30 44 1 56 57
M  V30 45 1 58 59
M  V30 46 1 59 60
M  V30 47 1 61 62
M  V30 48 1 62 63
M  V30 49 1 64 65
M  V30 50 1 65 66
M  V30 51 1 67 68
M  V30 52 1 68 69
M  V30 53 1 70 71
M  V30 54 1 71 72
M  V30 55 1 73 74
M  V30 56 1 74 75
M  V30 57 1 76 77
M  V30 58 1 77 78
M  V30 59 1 79 80
M  V30 60 1 80 81
M  V30 61 1 82 83
M  V30 62 1 83 84
M  V30 63 1 85 86
M  V30 64 1 86 87
M  V30 65 1 88 89
M  V30 66 1 89 90
M  V30 67 1 91 92
M  V30 68 1 92 93
M  V30 69 1 94 95
M  V30 70 1 95 96
M  V30 71 1 97 98
M  V30 72 1 98 99
M  V30 73 1 2 82
M  V30 74 1 3 73
M  V30 75 1 4 97
M  V30 76 1 5 67
M  V30 77 1 7 46
M  V30 78 1 8 58
M  V30 79 1 9 64
M  V30 80 1 10 88
M  V30 81 1 12 91
M  V30 82 1 13 79
M  V30 83 1 14 61
M  V30 84 1 15 55
M  V30 85 1 17 63
M  V30 86 1 18 52
M  V30 87 1 19 85
M  V30 88 1 20 94
M  V30 89 1 22 48
M  V30 90 1 23 81
M  V30 91 1 24 87
M  V30 92 1 25 49
M  V30 93 1 27 54
M  V30 94 1 28 76
M  V30 95 1 29 99
M  V30 96 1 30 96
M  V30 97 1 32 84
M  V30 98 1 33 78
M  V30 99 1 34 57
M  V30 100 1 35 93
M  V30 101 1 37 51
M  V30 102 1 38 70
M  V30 103 1 39 66
M  V30 104 1 40 69
M  V30 105 1 42 60
M  V30 106 1 43 75
M  V30 107 1 44 72
M  V30 108 1 45 90
M  V30 END BOND
M  V30 END CTAB
M  END

$$$$
