
     RDKit          3D

  0  0  0  0  0  0  0  0  0  0999 V3000
M  V30 BEGIN CTAB
M  V30 COUNTS 99 108 0 0 0
M  V30 BEGIN ATOM
M  V30 1 Pd 3.4439 0.7178 -0.2727 0
M  V30 2 Pb 4.0834 0.1731 -0.8148 0
M  V30 3 Pb 2.7699 1.3139 0.1658 0
M  V30 4 Pb 3.8859 1.5600 -0.5705 0
M  V30 5 Pb 2.9864 -0.1328 -0.0014 0
M  V30 6 Pd -0.8760 0.0125 7.5855 0
M  V30 7 Pb -1.7268 -0.3528 7.2020 0
M  V30 8 Pb -0.0396 0.4325 7.9337 0
M  V30 9 Pb -0.4446 -0.8882 7.6749 0
M  V30 10 Pb -1.2006 0.9403 7.3982 0
M  V30 11 Pd -1.7434 -3.5110 -5.4852 0
M  V30 12 Pb -0.8597 -3.8659 -5.1780 0
M  V30 13 Pb -2.2363 -3.9672 -4.7454 0
M  V30 14 Pb -2.6322 -3.1341 -5.7373 0
M  V30 15 Pb -1.2667 -2.9843 -6.1895 0
M  V30 16 Pd -5.1900 1.5399 -2.3654 0
M  V30 17 Pb -5.6491 0.9055 -2.9810 0
M  V30 18 Pb -4.6830 1.8587 -3.1604 0
M  V30 19 Pb -5.6970 1.1852 -1.5757 0
M  V30 20 Pb -4.6003 2.1411 -1.8185 0
M  V30 21 Pd -4.9219 -2.5854 1.5171 0
M  V30 22 Pb -4.9634 -2.1956 2.4383 0
M  V30 23 Pb -4.8420 -3.0416 0.6296 0
M  V30 24 Pb -5.5293 -1.8675 1.1652 0
M  V30 25 Pb -4.2979 -3.2681 1.8870 0
M  V30 26 Pd 1.5554 3.7707 -3.7996 0
M  V30 27 Pb 0.7693 3.6047 -4.3856 0
M  V30 28 Pb 2.1834 3.4790 -4.5214 0
M  V30 29 Pb 2.3443 3.9360 -3.2100 0
M  V30 30 Pb 0.8967 3.9611 -3.0625 0
M  V30 31 Pd 2.9593 -1.1503 -5.2720 0
M  V30 32 Pb 3.6714 -1.1583 -4.5652 0
M  V30 33 Pb 3.2328 -0.2291 -5.5598 0
M  V30 34 Pb 2.2559 -1.1677 -5.9850 0
M  V30 35 Pb 2.6727 -2.0691 -4.9963 0
M  V30 36 Pd 2.0016 -2.7997 4.0760 0
M  V30 37 Pb 1.2235 -3.4147 3.9811 0
M  V30 38 Pb 2.7789 -2.1727 4.1216 0
M  V30 39 Pb 1.8874 -2.8579 5.0723 0
M  V30 40 Pb 2.0319 -2.7200 3.0778 0
M  V30 41 Pd 2.8264 4.1687 4.0688 0
M  V30 42 Pb 3.1097 4.1103 5.0217 0
M  V30 43 Pb 2.4312 4.0455 3.1596 0
M  V30 44 Pb 3.5880 3.5686 3.8440 0
M  V30 45 Pb 1.9649 4.5628 4.3841 0
M  V30 46 Ag -2.3863 -0.5486 6.8971 0
M  V30 47 Fe -3.6782 -1.2589 5.0320 0
M  V30 48 Ag -4.9523 -1.9721 3.1558 0
M  V30 49 Ag -3.7987 -3.7341 2.1869 0
M  V30 50 Fe -1.5998 -3.9034 3.0544 0
M  V30 51 Ag 0.6235 -3.8447 3.8729 0
M  V30 52 Ag -4.2652 2.0794 -3.7365 0
M  V30 53 Fe -2.1049 2.7928 -4.3929 0
M  V30 54 Ag 0.1329 3.4790 -4.7495 0
M  V30 55 Ag -1.3199 1.6520 7.1927 0
M  V30 56 Fe -0.2095 3.3603 5.9741 0
M  V30 57 Ag 1.2941 4.6783 4.6949 0
M  V30 58 Ag 0.5706 0.8242 8.1165 0
M  V30 59 Fe 2.0528 2.4088 7.1639 0
M  V30 60 Ag 3.1966 3.9125 5.7345 0
M  V30 61 Ag -4.0651 2.5828 -1.5200 0
M  V30 62 Fe -1.8558 3.3788 -1.9259 0
M  V30 63 Ag 0.3497 4.0372 -2.5444 0
M  V30 64 Ag -3.3218 -2.8523 -5.8004 0
M  V30 65 Fe -4.7667 -1.2677 -4.7900 0
M  V30 66 Ag -5.8369 0.4196 -3.5147 0
M  V30 67 Ag 3.3363 -1.6745 4.0632 0
M  V30 68 Fe 3.8861 0.6272 3.8932 0
M  V30 69 Ag 4.0542 2.9904 3.7780 0
M  V30 70 Ag -2.6748 -4.2369 -4.2003 0
M  V30 71 Fe -3.7021 -3.8547 -2.0922 0
M  V30 72 Ag -4.7270 -3.4578 0.0143 0
M  V30 73 Ba 4.5340 -0.2217 -1.2659 0
M  V30 74 Ga 4.3791 -0.7078 -2.6525 0
M  V30 75 Ba 4.2106 -1.1874 -4.0398 0
M  V30 76 Ba -6.1073 0.9030 -1.0105 0
M  V30 77 Ga -6.0141 -0.2139 -0.0441 0
M  V30 78 Ba -5.9891 -1.3098 0.9500 0
M  V30 79 Ba -0.8878 -2.5663 -6.6843 0
M  V30 80 Ga 0.4179 -1.8796 -6.6214 0
M  V30 81 Ba 1.7287 -1.2073 -6.5194 0
M  V30 82 Ba -0.1857 -4.0997 -4.9449 0
M  V30 83 Ga 1.1358 -3.4461 -4.8671 0
M  V30 84 Ba 2.4401 -2.7574 -4.8054 0
M  V30 85 Ba -0.0353 -1.5192 7.7211 0
M  V30 86 Ga 0.8449 -2.2351 6.7686 0
M  V30 87 Ba 1.7222 -2.9393 5.8046 0
M  V30 88 Ba 4.1521 2.2179 -0.8022 0
M  V30 89 Ga 3.5965 3.1585 -1.7875 0
M  V30 90 Ba 2.9566 4.0258 -2.7888 0
M  V30 91 Ba 2.6720 -0.8032 0.1371 0
M  V30 92 Ga 2.3574 -1.6998 1.2696 0
M  V30 93 Ba 2.0017 -2.6685 2.3282 0
M  V30 94 Ba 2.2899 1.8451 0.3957 0
M  V30 95 Ga 2.1968 2.8515 1.4723 0
M  V30 96 Ba 2.0617 3.8728 2.5303 0
M  V30 97 Ba 2.6564 3.2131 -5.0399 0
M  V30 98 Ga 3.0499 1.8415 -5.4233 0
M  V30 99 Ba 3.4286 0.4609 -5.7895 0
M  V30 END ATOM
M  V30 BEGIN BOND
M  V30 1 1 1 2
M  V30 2 1 1 3
M  V30 3 1 1 4
M  V30 4 1 1 5
M  V30 5 1 6 7
M  V30 6 1 6 8
M  V30 7 1 6 9
M  V30 8 1 6 10
M  V30 9 1 11 12
M  V30 10 1 11 13
M  V30 11 1 11 14
M  V30 12 1 11 15
M  V30 13 1 16 17
M  V30 14 1 16 18
M  V30 15 1 16 19
M  V30 16 1 16 20
M  V30 17 1 21 22
M  V30 18 1 21 23
M  V30 19 1 21 24
M  V30 20 1 21 25
M  V30 21 1 26 27
M  V30 22 1 26 28
M  V30 23 1 26 29
M  V30 24 1 26 30
M  V30 25 1 31 32
M  V30 26 1 31 33
M  V30 27 1 31 34
M  V30 28 1 31 35
M  V30 29 1 36 37
M  V30 30 1 36 38
M  V30 31 1 36 39
M  V30 32 1 36 40
M  V30 33 1 41 42
M  V30 34 1 41 43
M  V30 35 1 41 44
M  V30 36 1 41 45
M  V30 37 1 46 47
M  V30 38 1 47 48
M  V30 39 1 49 50
M  V30 40 1 50 51
M  V30 41 1 52 53
M  V30 42 1 53 54
M  V30 43 1 55 56
M  V30 44 1 56 57
M  V30 45 1 58 59
M  V30 46 1 59 60
M  V30 47 1 61 62
M  V30 48 1 62 63
M  V30 49 1 64 65
M  V30 50 1 65 66
M  V30 51 1 67 68
M  V30 52 1 68 69
M  V30 53 1 70 71
M  V30 54 1 71 72
M  V30 55 1 73 74
M  V30 56 1 74 75
M  V30 57 1 76 77
M  V30 58 1 77 78
M  V30 59 1 79 80
M  V30 60 1 80 81
M  V30 61 1 82 83
M  V30 62 1 83 84
M  V30 63 1 85 86
M  V30 64 1 86 87
M  V30 65 1 88 89
M  V30 66 1 89 90
M  V30 67 1 91 92
M  V30 68 1 92 93
M  V30 69 1 94 95
M  V30 70 1 95 96
M  V30 71 1 97 98
M  V30 72 1 98 99
M  V30 73 1 2 73
M  V30 74 1 3 94
M  V30 75 1 4 88
M  V30 76 1 5 91
M  V30 77 1 7 46
M  V30 78 1 8 58
M  V30 79 1 9 85
M  V30 80 1 10 55
M  V30 81 1 12 82
M  V30 82 1 13 70
M  V30 83 1 14 64
M  V30 84 1 15 79
M  V30 85 1 17 66
M  V30 86 1 18 52
M  V30 87 1 19 76
M  V30 88 1 20 61
M  V30 89 1 22 48
M  V30 90 1 23 72
M  V30 91 1 24 78
M  V30 92 1 25 49
M  V30 93 1 27 54
M  V30 94 1 28 97
M  V30 95 1 29 90
M  V30 96 1 30 63
M  V30 97 1 32 75
M  V30 98 1 33 99
M  V30 99 1 34 81
M  V30 100 1 35 84
M  V30 101 1 37 51
M  V30 102 1 38 67
M  V30 103 1 39 87
M  V30 104 1 40 93
M  V30 105 1 42 60
M  V30 106 1 43 96
M  V30 107 1 44 69
M  V30 108 1 45 57
M  V30 END BOND
M  V30 END CTAB
M  END

$$$$
