
     RDKit          3D

  0  0  0  0  0  0  0  0  0  0999 V3000
M  V30 BEGIN CTAB
M  V30 COUNTS 99 108 0 0 0
M  V30 BEGIN ATOM
M  V30 1 Pd -1.5810 0.4719 4.3094 0
M  V30 2 Pb -2.3920 -0.0280 4.6315 0
M  V30 3 Pb -0.7700 0.9892 4.0383 0
M  V30 4 Pb -1.8668 1.3273 4.7432 0
M  V30 5 Pb -1.2521 -0.3626 3.8610 0
M  V30 6 Pd 7.9944 -0.7501 -1.0738 0
M  V30 7 Pb 7.4631 -0.6544 -1.9172 0
M  V30 8 Pb 8.0228 0.2462 -0.9739 0
M  V30 9 Pb 7.8833 -1.7446 -1.0403 0
M  V30 10 Pb 8.5129 -0.7984 -0.2237 0
M  V30 11 Pd -5.6036 -2.1511 -3.5652 0
M  V30 12 Pb -5.5152 -3.0127 -3.0823 0
M  V30 13 Pb -4.9939 -2.5019 -4.2682 0
M  V30 14 Pb -5.6474 -1.3071 -4.1075 0
M  V30 15 Pb -6.1818 -1.7965 -2.8012 0
M  V30 16 Pd -2.5310 2.3106 -4.3401 0
M  V30 17 Pb -3.2303 1.8472 -4.8877 0
M  V30 18 Pb -1.9100 2.7729 -3.6947 0
M  V30 19 Pb -1.7795 2.0262 -4.9464 0
M  V30 20 Pb -3.2758 2.7010 -3.8138 0
M  V30 21 Pd 1.5900 -1.4772 -5.5645 0
M  V30 22 Pb 2.4897 -1.0788 -5.3835 0
M  V30 23 Pb 0.7187 -1.9078 -5.7814 0
M  V30 24 Pb 1.2396 -0.6119 -5.9260 0
M  V30 25 Pb 1.8979 -2.3217 -5.1324 0
M  V30 26 Pd -3.5813 4.9449 2.3202 0
M  V30 27 Pb -2.7475 4.9571 1.7566 0
M  V30 28 Pb -4.4420 4.7718 2.7852 0
M  V30 29 Pb -3.1102 4.7681 3.1845 0
M  V30 30 Pb -4.0969 5.0204 1.4769 0
M  V30 31 Pd -6.3568 -1.4852 2.3790 0
M  V30 32 Pb -5.9066 -1.5353 3.2724 0
M  V30 33 Pb -6.6562 -0.5651 2.6194 0
M  V30 34 Pb -6.7265 -1.3884 1.4304 0
M  V30 35 Pb -6.0924 -2.4209 2.1836 0
M  V30 36 Pd 4.1020 -3.8518 1.1028 0
M  V30 37 Pb 3.8247 -4.1608 0.1949 0
M  V30 38 Pb 4.3555 -3.5281 2.0169 0
M  V30 39 Pb 5.0511 -3.9633 0.7912 0
M  V30 40 Pb 3.1435 -3.7331 1.3715 0
M  V30 41 Pd 6.0286 2.1545 4.5314 0
M  V30 42 Pb 6.3682 2.7955 3.8446 0
M  V30 43 Pb 5.0931 2.4644 4.3723 0
M  V30 44 Pb 5.6993 1.3424 5.0059 0
M  V30 45 Pb 6.9394 1.7547 4.5585 0
M  V30 46 Ag 7.0703 -0.5178 -2.5431 0
M  V30 47 Fe 5.1162 -0.6854 -3.8846 0
M  V30 48 Ag 3.1859 -0.8252 -5.2633 0
M  V30 49 Ag 2.1151 -2.9260 -4.7503 0
M  V30 50 Fe 2.8802 -3.7243 -2.6515 0
M  V30 51 Ag 3.6378 -4.3713 -0.4985 0
M  V30 52 Ag -1.5361 3.1315 -3.1402 0
M  V30 53 Fe -1.7487 4.0492 -0.9480 0
M  V30 54 Ag -2.1983 4.8927 1.2382 0
M  V30 55 Ag 8.8436 -0.7499 0.4431 0
M  V30 56 Fe 8.4630 0.2298 2.5642 0
M  V30 57 Ag 7.5719 1.3861 4.4272 0
M  V30 58 Ag 8.0006 0.9683 -0.7662 0
M  V30 59 Fe 7.3826 2.2734 1.1206 0
M  V30 60 Ag 6.6413 3.1047 3.2190 0
M  V30 61 Ag -5.4441 -3.5924 -2.6302 0
M  V30 62 Fe -5.5836 -3.8263 -0.2939 0
M  V30 63 Ag -5.9176 -3.0850 1.9130 0
M  V30 64 Ag -3.7930 3.0616 -3.4227 0
M  V30 65 Fe -4.2770 4.0735 -1.3420 0
M  V30 66 Ag -4.4624 4.9778 0.8339 0
M  V30 67 Ag -1.0123 -0.9925 3.5255 0
M  V30 68 Fe 0.7155 -2.3051 2.5525 0
M  V30 69 Ag 2.4252 -3.6377 1.5747 0
M  V30 70 Ag 4.4656 -3.2555 2.7096 0
M  V30 71 Fe 4.9627 -1.3804 4.0810 0
M  V30 72 Ag 5.5024 0.6467 5.1951 0
M  V30 73 Ag -0.1944 1.4504 3.9027 0
M  V30 74 Fe 2.1011 2.0402 4.0452 0
M  V30 75 Ag 4.3934 2.6449 4.1760 0
M  V30 76 Ag -5.0820 4.4945 3.0409 0
M  V30 77 Fe -6.1346 2.3734 3.0420 0
M  V30 78 Ag -6.8433 0.1221 2.8449 0
M  V30 79 Ag -4.4906 -2.7288 -4.7673 0
M  V30 80 Fe -2.2228 -2.5351 -5.4236 0
M  V30 81 Ag 0.0679 -2.2326 -5.9464 0
M  V30 82 Ba -2.9795 -0.4199 4.9001 0
M  V30 83 Ga -4.2590 -0.9730 4.4020 0
M  V30 84 Ba -5.5443 -1.5366 3.9313 0
M  V30 85 Ba -1.2267 1.8962 -5.4465 0
M  V30 86 Ga -0.1489 0.9365 -5.7760 0
M  V30 87 Ba 0.9515 0.0332 -6.1822 0
M  V30 88 Ba -6.6425 -1.5494 -2.2339 0
M  V30 89 Ga -6.7519 -1.4503 -0.7402 0
M  V30 90 Ba -7.0216 -1.2747 0.7259 0
M  V30 91 Ba -5.6258 -0.7355 -4.6003 0
M  V30 92 Ga -4.7233 0.3992 -4.9024 0
M  V30 93 Ba -3.8330 1.5397 -5.2180 0
M  V30 94 Ba 7.7964 -2.4809 -0.9131 0
M  V30 95 Ga 6.7592 -3.2780 -0.2190 0
M  V30 96 Ba 5.7278 -4.0815 0.4763 0
M  V30 97 Ba -1.9862 2.0103 5.0331 0
M  V30 98 Ga -2.4152 3.3042 4.4643 0
M  V30 99 Ba -2.8496 4.5817 3.8635 0
M  V30 END ATOM
M  V30 BEGIN BOND
M  V30 1 1 1 2
M  V30 2 1 1 3
M  V30 3 1 1 4
M  V30 4 1 1 5
M  V30 5 1 6 7
M  V30 6 1 6 8
M  V30 7 1 6 9
M  V30 8 1 6 10
M  V30 9 1 11 12
M  V30 10 1 11 13
M  V30 11 1 11 14
M  V30 12 1 11 15
M  V30 13 1 16 17
M  V30 14 1 16 18
M  V30 15 1 16 19
M  V30 16 1 16 20
M  V30 17 1 21 22
M  V30 18 1 21 23
M  V30 19 1 21 24
M  V30 20 1 21 25
M  V30 21 1 26 27
M  V30 22 1 26 28
M  V30 23 1 26 29
M  V30 24 1 26 30
M  V30 25 1 31 32
M  V30 26 1 31 33
M  V30 27 1 31 34
M  V30 28 1 31 35
M  V30 29 1 36 37
M  V30 30 1 36 38
M  V30 31 1 36 39
M  V30 32 1 36 40
M  V30 33 1 41 42
M  V30 34 1 41 43
M  V30 35 1 41 44
M  V30 36 1 41 45
M  V30 37 1 46 47
M  V30 38 1 47 48
M  V30 39 1 49 50
M  V30 40 1 50 51
M  V30 41 1 52 53
M  V30 42 1 53 54
M  V30 43 1 55 56
M  V30 44 1 56 57
M  V30 45 1 58 59
M  V30 46 1 59 60
M  V30 47 1 61 62
M  V30 48 1 62 63
M  V30 49 1 64 65
M  V30 50 1 65 66
M  V30 51 1 67 68
M  V30 52 1 68 69
M  V30 53 1 70 71
M  V30 54 1 71 72
M  V30 55 1 73 74
M  V30 56 1 74 75
M  V30 57 1 76 77
M  V30 58 1 77 78
M  V30 59 1 79 80
M  V30 60 1 80 81
M  V30 61 1 82 83
M  V30 62 1 83 84
M  V30 63 1 85 86
M  V30 64 1 86 87
M  V30 65 1 88 89
M  V30 66 1 89 90
M  V30 67 1 91 92
M  V30 68 1 92 93
M  V30 69 1 94 95
M  V30 70 1 95 96
M  V30 71 1 97 98
M  V30 72 1 98 99
M  V30 73 1 2 82
M  V30 74 1 3 73
M  V30 75 1 4 97
M  V30 76 1 5 67
M  V30 77 1 7 46
M  V30 78 1 8 58
M  V30 79 1 9 94
M  V30 80 1 10 55
M  V30 81 1 12 61
M  V30 82 1 13 79
M  V30 83 1 14 91
M  V30 84 1 15 88
M  V30 85 1 17 93
M  V30 86 1 18 52
M  V30 87 1 19 85
M  V30 88 1 20 64
M  V30 89 1 22 48
M  V30 90 1 23 81
M  V30 91 1 24 87
M  V30 92 1 25 49
M  V30 93 1 27 54
M  V30 94 1 28 76
M  V30 95 1 29 99
M  V30 96 1 30 66
M  V30 97 1 32 84
M  V30 98 1 33 78
M  V30 99 1 34 90
M  V30 100 1 35 63
M  V30 101 1 37 51
M  V30 102 1 38 70
M  V30 103 1 39 96
M  V30 104 1 40 69
M  V30 105 1 42 60
M  V30 106 1 43 75
M  V30 107 1 44 72
M  V30 108 1 45 57
M  V30 END BOND
M  V30 END CTAB
M  END

$$$$
