
     RDKit          3D

  0  0  0  0  0  0  0  0  0  0999 V3000
M  V30 BEGIN CTAB
M  V30 COUNTS 99 108 0 0 0
M  V30 BEGIN ATOM
M  V30 1 Pd 3.8454 1.2871 -2.6854 0
M  V30 2 Pb 3.0942 1.4244 -2.0517 0
M  V30 3 Pb 4.6240 1.1590 -3.3070 0
M  V30 4 Pb 3.4363 0.4214 -2.9807 0
M  V30 5 Pb 4.1780 2.1710 -2.3567 0
M  V30 6 Pd 4.1219 -3.0409 1.7740 0
M  V30 7 Pb 3.1296 -3.0753 1.8706 0
M  V30 8 Pb 5.1234 -3.0182 1.6211 0
M  V30 9 Pb 4.1690 -2.3485 2.5004 0
M  V30 10 Pb 4.0635 -3.7182 1.0453 0
M  V30 11 Pd -7.0402 2.8960 1.7718 0
M  V30 12 Pb -7.2040 3.1511 0.8148 0
M  V30 13 Pb -6.7919 2.6031 2.6970 0
M  V30 14 Pb -7.5860 2.0703 1.6615 0
M  V30 15 Pb -6.4278 3.6754 1.8514 0
M  V30 16 Pd -4.8704 -3.6264 0.1372 0
M  V30 17 Pb -5.7849 -3.2818 0.3314 0
M  V30 18 Pb -4.9721 -3.3140 -0.8022 0
M  V30 19 Pb -4.7787 -3.8303 1.1115 0
M  V30 20 Pb -3.9311 -3.9115 -0.0737 0
M  V30 21 Pd -3.1306 -0.3908 3.6584 0
M  V30 22 Pb -2.4181 -0.9752 3.2754 0
M  V30 23 Pb -3.8662 0.1728 4.0462 0
M  V30 24 Pb -3.6454 -1.2353 3.8123 0
M  V30 25 Pb -2.5678 0.4219 3.4918 0
M  V30 26 Pd -1.3296 -1.3670 -3.0512 0
M  V30 27 Pb -2.3209 -1.4773 -3.0702 0
M  V30 28 Pb -1.4601 -0.4998 -3.5367 0
M  V30 29 Pb -0.3268 -1.3497 -3.1508 0
M  V30 30 Pb -1.2651 -2.2116 -2.5114 0
M  V30 31 Pd -3.4516 3.4777 -1.5677 0
M  V30 32 Pb -2.5498 3.2690 -1.2096 0
M  V30 33 Pb -3.2063 2.9870 -2.4108 0
M  V30 34 Pb -3.6387 4.0275 -0.7548 0
M  V30 35 Pb -4.4062 3.6075 -1.8395 0
M  V30 36 Pd 3.9513 2.4217 2.1381 0
M  V30 37 Pb 2.9701 2.5627 2.2941 0
M  V30 38 Pb 4.9257 2.3040 1.9683 0
M  V30 39 Pb 3.9696 1.6822 2.8147 0
M  V30 40 Pb 3.9832 3.1007 1.4029 0
M  V30 41 Pd 7.9718 -1.6274 -2.1648 0
M  V30 42 Pb 7.9532 -2.1203 -1.2827 0
M  V30 43 Pb 7.8298 -1.0733 -2.9838 0
M  V30 44 Pb 8.2509 -0.8240 -1.6498 0
M  V30 45 Pb 7.6097 -2.4374 -2.6173 0
M  V30 46 Ag 2.3839 -3.1170 1.9042 0
M  V30 47 Fe 0.2562 -2.2366 2.4765 0
M  V30 48 Ag -1.9264 -1.4662 2.9979 0
M  V30 49 Ag 2.5494 1.5824 -1.5728 0
M  V30 50 Fe 0.3278 2.3181 -1.2225 0
M  V30 51 Ag -1.8994 3.0578 -0.9194 0
M  V30 52 Ag -2.1209 1.0125 3.3583 0
M  V30 53 Fe 0.0556 1.8479 2.8873 0
M  V30 54 Ag 2.2352 2.6754 2.4163 0
M  V30 55 Ag 4.1236 -4.1460 0.4404 0
M  V30 56 Fe 5.5211 -4.0135 -1.4548 0
M  V30 57 Ag 7.2165 -3.0452 -2.7761 0
M  V30 58 Ag -7.9081 1.4053 1.5633 0
M  V30 59 Fe -7.3565 -0.8366 1.0330 0
M  V30 60 Ag -6.4345 -2.9484 0.4831 0
M  V30 61 Ag 5.6406 2.2352 1.7668 0
M  V30 62 Fe 7.1430 1.0842 0.3431 0
M  V30 63 Ag 8.3613 -0.2561 -1.1824 0
M  V30 64 Ba -4.7649 -3.8967 1.8586 0
M  V30 65 Ga -4.3727 -2.9338 2.9069 0
M  V30 66 Ba -3.9586 -1.9137 3.8908 0
M  V30 67 Ba -5.0351 -3.0115 -1.4804 0
M  V30 68 Ga -4.0616 -2.3072 -2.3275 0
M  V30 69 Ba -3.0539 -1.6093 -3.1393 0
M  V30 70 Ba -5.9181 4.2174 1.8464 0
M  V30 71 Ga -4.8281 4.3934 0.8771 0
M  V30 72 Ba -3.7855 4.4540 -0.1568 0
M  V30 73 Ba 5.8749 -3.0566 1.4926 0
M  V30 74 Ga 6.8644 -2.7328 0.4252 0
M  V30 75 Ba 7.9141 -2.4391 -0.5924 0
M  V30 76 Ba -7.2670 3.3372 0.0867 0
M  V30 77 Ga -6.2476 3.5243 -0.9693 0
M  V30 78 Ba -5.1464 3.6855 -1.9442 0
M  V30 79 Ba -3.2257 -4.0932 -0.2696 0
M  V30 80 Ga -2.2276 -3.4753 -1.1734 0
M  V30 81 Ba -1.2511 -2.8334 -2.0840 0
M  V30 82 Ba 4.1744 -1.8372 3.0555 0
M  V30 83 Ga 4.0932 -0.3636 3.1679 0
M  V30 84 Ba 4.0136 1.1085 3.3001 0
M  V30 85 Ba 3.1110 -0.2257 -3.1838 0
M  V30 86 Ga 1.7366 -0.7790 -3.2084 0
M  V30 87 Ba 0.4142 -1.4429 -3.2803 0
M  V30 88 Ba 4.3189 2.8381 -2.0424 0
M  V30 89 Ga 4.2244 3.2524 -0.6272 0
M  V30 90 Ba 4.1026 3.5533 0.8144 0
M  V30 91 Ba 5.2119 1.0514 -3.7674 0
M  V30 92 Ga 6.4375 0.2275 -3.6982 0
M  V30 93 Ba 7.6369 -0.6239 -3.5518 0
M  V30 94 Ba -1.6431 0.1432 -3.8834 0
M  V30 95 Ga -2.2984 1.4005 -3.4530 0
M  V30 96 Ba -2.9544 2.6655 -3.0473 0
M  V30 97 Ba -6.5729 2.3680 3.3769 0
M  V30 98 Ga -5.4948 1.4763 3.8582 0
M  V30 99 Ba -4.4198 0.5863 4.3493 0
M  V30 END ATOM
M  V30 BEGIN BOND
M  V30 1 1 1 2
M  V30 2 1 1 3
M  V30 3 1 1 4
M  V30 4 1 1 5
M  V30 5 1 6 7
M  V30 6 1 6 8
M  V30 7 1 6 9
M  V30 8 1 6 10
M  V30 9 1 11 12
M  V30 10 1 11 13
M  V30 11 1 11 14
M  V30 12 1 11 15
M  V30 13 1 16 17
M  V30 14 1 16 18
M  V30 15 1 16 19
M  V30 16 1 16 20
M  V30 17 1 21 22
M  V30 18 1 21 23
M  V30 19 1 21 24
M  V30 20 1 21 25
M  V30 21 1 26 27
M  V30 22 1 26 28
M  V30 23 1 26 29
M  V30 24 1 26 30
M  V30 25 1 31 32
M  V30 26 1 31 33
M  V30 27 1 31 34
M  V30 28 1 31 35
M  V30 29 1 36 37
M  V30 30 1 36 38
M  V30 31 1 36 39
M  V30 32 1 36 40
M  V30 33 1 41 42
M  V30 34 1 41 43
M  V30 35 1 41 44
M  V30 36 1 41 45
M  V30 37 1 46 47
M  V30 38 1 47 48
M  V30 39 1 49 50
M  V30 40 1 50 51
M  V30 41 1 52 53
M  V30 42 1 53 54
M  V30 43 1 55 56
M  V30 44 1 56 57
M  V30 45 1 58 59
M  V30 46 1 59 60
M  V30 47 1 61 62
M  V30 48 1 62 63
M  V30 49 1 64 65
M  V30 50 1 65 66
M  V30 51 1 67 68
M  V30 52 1 68 69
M  V30 53 1 70 71
M  V30 54 1 71 72
M  V30 55 1 73 74
M  V30 56 1 74 75
M  V30 57 1 76 77
M  V30 58 1 77 78
M  V30 59 1 79 80
M  V30 60 1 80 81
M  V30 61 1 82 83
M  V30 62 1 83 84
M  V30 63 1 85 86
M  V30 64 1 86 87
M  V30 65 1 88 89
M  V30 66 1 89 90
M  V30 67 1 91 92
M  V30 68 1 92 93
M  V30 69 1 94 95
M  V30 70 1 95 96
M  V30 71 1 97 98
M  V30 72 1 98 99
M  V30 73 1 2 49
M  V30 74 1 3 91
M  V30 75 1 4 85
M  V30 76 1 5 88
M  V30 77 1 7 46
M  V30 78 1 8 73
M  V30 79 1 9 82
M  V30 80 1 10 55
M  V30 81 1 12 76
M  V30 82 1 13 97
M  V30 83 1 14 58
M  V30 84 1 15 70
M  V30 85 1 17 60
M  V30 86 1 18 67
M  V30 87 1 19 64
M  V30 88 1 20 79
M  V30 89 1 22 48
M  V30 90 1 23 99
M  V30 91 1 24 66
M  V30 92 1 25 52
M  V30 93 1 27 69
M  V30 94 1 28 94
M  V30 95 1 29 87
M  V30 96 1 30 81
M  V30 97 1 32 51
M  V30 98 1 33 96
M  V30 99 1 34 72
M  V30 100 1 35 78
M  V30 101 1 37 54
M  V30 102 1 38 61
M  V30 103 1 39 84
M  V30 104 1 40 90
M  V30 105 1 42 75
M  V30 106 1 43 93
M  V30 107 1 44 63
M  V30 108 1 45 57
M  V30 END BOND
M  V30 END CTAB
M  END

$$$$
