
     RDKit          3D

  0  0  0  0  0  0  0  0  0  0999 V3000
M  V30 BEGIN CTAB
M  V30 COUNTS 99 108 0 0 0
M  V30 BEGIN ATOM
M  V30 1 Pd 2.0739 -4.7537 -2.6651 0
M  V30 2 Pb 1.1204 -4.8129 -2.3563 0
M  V30 3 Pb 2.9320 -4.7804 -3.1798 0
M  V30 4 Pb 2.3123 -5.6114 -2.1959 0
M  V30 5 Pb 2.0773 -3.7484 -2.6973 0
M  V30 6 Pd -1.7088 1.0298 3.3696 0
M  V30 7 Pb -2.5260 1.6050 3.3165 0
M  V30 8 Pb -1.6700 0.8475 2.3826 0
M  V30 9 Pb -1.5610 1.4057 4.2811 0
M  V30 10 Pb -0.8832 0.4755 3.4668 0
M  V30 11 Pd 4.2919 -3.5427 0.8555 0
M  V30 12 Pb 3.4635 -3.4393 1.4027 0
M  V30 13 Pb 5.2036 -3.5823 0.4387 0
M  V30 14 Pb 4.0729 -2.6876 0.3720 0
M  V30 15 Pb 4.2449 -4.5462 0.9100 0
M  V30 16 Pd 5.0184 1.7981 1.4669 0
M  V30 17 Pb 5.3571 2.2180 2.3060 0
M  V30 18 Pb 5.1703 2.6748 1.0056 0
M  V30 19 Pb 4.7010 1.0047 1.9780 0
M  V30 20 Pb 4.6429 1.3539 0.6514 0
M  V30 21 Pd 2.9111 5.7206 3.3697 0
M  V30 22 Pb 3.6936 5.2919 3.8152 0
M  V30 23 Pb 2.1142 6.1271 2.9158 0
M  V30 24 Pb 2.3441 5.5150 4.1680 0
M  V30 25 Pb 3.4678 5.7915 2.5365 0
M  V30 26 Pd -4.1320 4.7841 0.2093 0
M  V30 27 Pb -4.2959 4.4917 1.1472 0
M  V30 28 Pb -3.9458 4.9886 -0.7472 0
M  V30 29 Pb -4.8370 4.1351 -0.0884 0
M  V30 30 Pb -3.3945 5.3994 0.4992 0
M  V30 31 Pd -0.7436 -2.6753 -0.0953 0
M  V30 32 Pb 0.0967 -2.3252 -0.5161 0
M  V30 33 Pb -1.6093 -2.9124 0.3444 0
M  V30 34 Pb -0.3153 -2.6095 0.7982 0
M  V30 35 Pb -1.1300 -2.8582 -0.9967 0
M  V30 36 Pd -5.3354 -2.3377 -2.0668 0
M  V30 37 Pb -4.7157 -3.1160 -2.1852 0
M  V30 38 Pb -5.1774 -2.4752 -1.0920 0
M  V30 39 Pb -5.4805 -2.2239 -3.0527 0
M  V30 40 Pb -5.8488 -1.4951 -1.8920 0
M  V30 41 Pd -2.4518 0.0168 -4.4891 0
M  V30 42 Pb -3.1644 -0.2384 -5.1335 0
M  V30 43 Pb -1.8576 0.2228 -3.7116 0
M  V30 44 Pb -2.3355 -0.9519 -4.2942 0
M  V30 45 Pb -2.5918 0.9910 -4.6446 0
M  V30 46 Ag -0.2408 0.0955 3.5276 0
M  V30 47 Fe 2.0757 0.1151 3.0205 0
M  V30 48 Ag 4.3186 0.4799 2.3440 0
M  V30 49 Ag -5.3470 3.6279 -0.3130 0
M  V30 50 Fe -5.8165 1.4103 -1.0335 0
M  V30 51 Ag -6.1711 -0.8316 -1.7442 0
M  V30 52 Ag -1.4662 0.7949 1.6567 0
M  V30 53 Fe -1.5573 0.5582 -0.7090 0
M  V30 54 Ag -1.4726 0.3341 -3.0765 0
M  V30 55 Ag 1.5013 6.4226 2.5928 0
M  V30 56 Fe -0.6627 6.1393 1.6468 0
M  V30 57 Ag -2.8263 5.8506 0.7016 0
M  V30 58 Ag -3.8013 5.0187 -1.4772 0
M  V30 59 Fe -3.2419 3.5387 -3.2391 0
M  V30 60 Ag -2.7004 1.7283 -4.6666 0
M  V30 61 Ag 0.3827 -4.9408 -2.2569 0
M  V30 62 Fe -1.9078 -4.2963 -2.2169 0
M  V30 63 Ag -4.2013 -3.6650 -2.1528 0
M  V30 64 Ag -1.3345 1.8294 4.8527 0
M  V30 65 Fe 0.2390 3.5931 5.0567 0
M  V30 66 Ag 1.8972 5.2552 4.7116 0
M  V30 67 Ag 4.3262 0.9505 0.1014 0
M  V30 68 Fe 2.5451 -0.5314 -0.4345 0
M  V30 69 Ag 0.7097 -1.9976 -0.8059 0
M  V30 70 Ag 3.6208 -4.7790 -3.4636 0
M  V30 71 Fe 5.5517 -4.2630 -2.2474 0
M  V30 72 Ag 5.7977 -3.6460 -0.0055 0
M  V30 73 Ba 5.5676 2.5658 2.9331 0
M  V30 74 Ga 4.9796 3.7487 3.5782 0
M  V30 75 Ba 4.2836 4.9335 4.1006 0
M  V30 76 Ba 2.2166 -3.0168 -2.5329 0
M  V30 77 Ga 2.9943 -2.5084 -1.3570 0
M  V30 78 Ba 3.7930 -2.1863 -0.1305 0
M  V30 79 Ba -3.1218 2.0597 3.3693 0
M  V30 80 Ga -3.7677 3.1320 2.5916 0
M  V30 81 Ba -4.4258 4.2035 1.8232 0
M  V30 82 Ba 2.8840 -3.3017 1.8568 0
M  V30 83 Ga 1.4643 -2.9640 1.6848 0
M  V30 84 Ba 0.0525 -2.6365 1.4433 0
M  V30 85 Ba -5.5693 -2.1054 -3.7907 0
M  V30 86 Ga -4.7385 -1.3358 -4.7319 0
M  V30 87 Ba -3.7609 -0.5241 -5.4742 0
M  V30 88 Ba 2.5851 -6.1130 -1.6904 0
M  V30 89 Ga 3.3510 -5.7885 -0.4440 0
M  V30 90 Ba 4.0980 -5.2772 0.7501 0
M  V30 91 Ba 5.2120 3.3792 0.7421 0
M  V30 92 Ga 4.5832 4.6076 1.2823 0
M  V30 93 Ba 3.9024 5.7593 1.9197 0
M  V30 94 Ba -1.3884 -3.0493 -1.6721 0
M  V30 95 Ga -1.8270 -2.3614 -2.8955 0
M  V30 96 Ba -2.2666 -1.6725 -4.1181 0
M  V30 97 Ba -2.2729 -3.0177 0.6772 0
M  V30 98 Ga -3.6541 -2.8435 0.1965 0
M  V30 99 Ba -4.9908 -2.6435 -0.3883 0
M  V30 END ATOM
M  V30 BEGIN BOND
M  V30 1 1 1 2
M  V30 2 1 1 3
M  V30 3 1 1 4
M  V30 4 1 1 5
M  V30 5 1 6 7
M  V30 6 1 6 8
M  V30 7 1 6 9
M  V30 8 1 6 10
M  V30 9 1 11 12
M  V30 10 1 11 13
M  V30 11 1 11 14
M  V30 12 1 11 15
M  V30 13 1 16 17
M  V30 14 1 16 18
M  V30 15 1 16 19
M  V30 16 1 16 20
M  V30 17 1 21 22
M  V30 18 1 21 23
M  V30 19 1 21 24
M  V30 20 1 21 25
M  V30 21 1 26 27
M  V30 22 1 26 28
M  V30 23 1 26 29
M  V30 24 1 26 30
M  V30 25 1 31 32
M  V30 26 1 31 33
M  V30 27 1 31 34
M  V30 28 1 31 35
M  V30 29 1 36 37
M  V30 30 1 36 38
M  V30 31 1 36 39
M  V30 32 1 36 40
M  V30 33 1 41 42
M  V30 34 1 41 43
M  V30 35 1 41 44
M  V30 36 1 41 45
M  V30 37 1 46 47
M  V30 38 1 47 48
M  V30 39 1 49 50
M  V30 40 1 50 51
M  V30 41 1 52 53
M  V30 42 1 53 54
M  V30 43 1 55 56
M  V30 44 1 56 57
M  V30 45 1 58 59
M  V30 46 1 59 60
M  V30 47 1 61 62
M  V30 48 1 62 63
M  V30 49 1 64 65
M  V30 50 1 65 66
M  V30 51 1 67 68
M  V30 52 1 68 69
M  V30 53 1 70 71
M  V30 54 1 71 72
M  V30 55 1 73 74
M  V30 56 1 74 75
M  V30 57 1 76 77
M  V30 58 1 77 78
M  V30 59 1 79 80
M  V30 60 1 80 81
M  V30 61 1 82 83
M  V30 62 1 83 84
M  V30 63 1 85 86
M  V30 64 1 86 87
M  V30 65 1 88 89
M  V30 66 1 89 90
M  V30 67 1 91 92
M  V30 68 1 92 93
M  V30 69 1 94 95
M  V30 70 1 95 96
M  V30 71 1 97 98
M  V30 72 1 98 99
M  V30 73 1 2 61
M  V30 74 1 3 70
M  V30 75 1 4 88
M  V30 76 1 5 76
M  V30 77 1 7 79
M  V30 78 1 8 52
M  V30 79 1 9 64
M  V30 80 1 10 46
M  V30 81 1 12 82
M  V30 82 1 13 72
M  V30 83 1 14 78
M  V30 84 1 15 90
M  V30 85 1 17 73
M  V30 86 1 18 91
M  V30 87 1 19 48
M  V30 88 1 20 67
M  V30 89 1 22 75
M  V30 90 1 23 55
M  V30 91 1 24 66
M  V30 92 1 25 93
M  V30 93 1 27 81
M  V30 94 1 28 58
M  V30 95 1 29 49
M  V30 96 1 30 57
M  V30 97 1 32 69
M  V30 98 1 33 97
M  V30 99 1 34 84
M  V30 100 1 35 94
M  V30 101 1 37 63
M  V30 102 1 38 99
M  V30 103 1 39 85
M  V30 104 1 40 51
M  V30 105 1 42 87
M  V30 106 1 43 54
M  V30 107 1 44 96
M  V30 108 1 45 60
M  V30 END BOND
M  V30 END CTAB
M  END

$$$$
