
     RDKit          3D

  0  0  0  0  0  0  0  0  0  0999 V3000
M  V30 BEGIN CTAB
M  V30 COUNTS 99 108 0 0 0
M  V30 BEGIN ATOM
M  V30 1 Pd -1.6032 -0.0134 -1.3264 0
M  V30 2 Pb -1.4723 -0.4873 -2.1931 0
M  V30 3 Pb -1.3000 -0.8291 -0.8346 0
M  V30 4 Pb -1.5667 0.5128 -0.4814 0
M  V30 5 Pb -1.9388 0.7907 -1.8164 0
M  V30 6 Pd 9.3879 -0.3659 0.3945 0
M  V30 7 Pb 10.2210 0.0999 0.0846 0
M  V30 8 Pb 8.8479 0.1927 -0.2359 0
M  V30 9 Pb 9.9226 -0.9415 1.0217 0
M  V30 10 Pb 8.5675 -0.4775 0.9613 0
M  V30 11 Pd 9.3462 3.1405 2.6063 0
M  V30 12 Pb 8.5234 2.6667 2.9312 0
M  V30 13 Pb 10.1942 3.2297 2.0778 0
M  V30 14 Pb 9.8586 2.8535 3.4224 0
M  V30 15 Pb 8.8437 3.4277 1.7913 0
M  V30 16 Pd -7.9698 0.5013 0.4320 0
M  V30 17 Pb -8.2063 1.3299 -0.1023 0
M  V30 18 Pb -7.6714 0.0335 -0.4000 0
M  V30 19 Pb -8.2895 0.9512 1.2640 0
M  V30 20 Pb -7.3657 -0.0737 0.9838 0
M  V30 21 Pd -7.6080 -4.6978 -0.9881 0
M  V30 22 Pb -8.0403 -4.2447 -0.2067 0
M  V30 23 Pb -7.4365 -3.8257 -1.4484 0
M  V30 24 Pb -6.9542 -5.1814 -1.5798 0
M  V30 25 Pb -7.7501 -5.5670 -0.5172 0
M  V30 26 Pd -4.6461 4.2594 0.0365 0
M  V30 27 Pb -3.9454 3.7951 0.5783 0
M  V30 28 Pb -4.2288 3.9222 -0.8075 0
M  V30 29 Pb -5.5483 4.3339 -0.4201 0
M  V30 30 Pb -5.0467 4.6198 0.8771 0
M  V30 31 Pd -4.0121 -6.6522 1.3042 0
M  V30 32 Pb -3.9992 -6.7931 0.3083 0
M  V30 33 Pb -4.8736 -7.1546 1.3186 0
M  V30 34 Pb -4.2337 -6.3133 2.2201 0
M  V30 35 Pb -3.1857 -6.0925 1.2608 0
M  V30 36 Pd 4.0817 3.5901 0.9259 0
M  V30 37 Pb 5.0010 3.7452 0.5647 0
M  V30 38 Pb 3.1576 3.4334 1.2714 0
M  V30 39 Pb 3.7251 4.2758 0.2906 0
M  V30 40 Pb 4.3534 2.6910 1.2719 0
M  V30 41 Pd 2.8810 0.2367 -3.6309 0
M  V30 42 Pb 2.0277 -0.2243 -3.8888 0
M  V30 43 Pb 2.5886 1.1204 -3.9968 0
M  V30 44 Pb 3.7444 0.6793 -3.3874 0
M  V30 45 Pb 3.1604 -0.4816 -2.9940 0
M  V30 46 Ag 10.3149 -1.1926 1.6049 0
M  V30 47 Fe 10.7714 0.2150 3.4261 0
M  V30 48 Ag 10.2498 2.4501 3.9134 0
M  V30 49 Ag 8.4279 0.6006 -0.7054 0
M  V30 50 Fe 6.4235 0.8241 -1.9605 0
M  V30 51 Ag 4.3997 0.9890 -3.1933 0
M  V30 52 Ag 3.4341 4.5727 -0.3350 0
M  V30 53 Fe 2.8121 3.5379 -2.3822 0
M  V30 54 Ag 2.4539 1.8585 -4.0253 0
M  V30 55 Ag 4.4596 1.9473 1.2996 0
M  V30 56 Fe 4.0537 0.2573 -0.3228 0
M  V30 57 Ag 3.4202 -0.7901 -2.3607 0
M  V30 58 Ag -1.4024 0.9355 0.1106 0
M  V30 59 Fe 0.4397 2.1692 0.9515 0
M  V30 60 Ag 2.4570 3.2918 1.4942 0
M  V30 61 Ag -8.1179 -4.0446 0.5091 0
M  V30 62 Fe -6.5859 -4.7348 2.1741 0
M  V30 63 Ag -4.6289 -5.9404 2.7332 0
M  V30 64 Ag -8.3994 1.4043 1.8413 0
M  V30 65 Fe -7.1849 3.3687 2.2725 0
M  V30 66 Ag -5.4482 4.7433 1.4887 0
M  V30 67 Ag -1.1032 -1.4523 -0.4676 0
M  V30 68 Fe -1.7821 -3.5585 0.3926 0
M  V30 69 Ag -2.5934 -5.6377 1.2018 0
M  V30 70 Ag -6.7278 -0.2326 1.3448 0
M  V30 71 Fe -4.8533 1.2219 1.4532 0
M  V30 72 Ag -3.6700 3.2266 0.9826 0
M  V30 73 Ba -8.2426 2.0056 -0.4666 0
M  V30 74 Ga -7.2673 3.1411 -0.6005 0
M  V30 75 Ba -6.2572 4.2491 -0.7043 0
M  V30 76 Ba -1.2683 -0.8000 -2.8399 0
M  V30 77 Ga 0.0470 -0.7160 -3.5031 0
M  V30 78 Ba 1.3929 -0.5762 -4.0917 0
M  V30 79 Ba 10.7840 0.5995 -0.0016 0
M  V30 80 Ga 10.8835 1.8867 0.7433 0
M  V30 81 Ba 10.7656 3.1027 1.5969 0
M  V30 82 Ba -7.7928 -6.2171 -0.1490 0
M  V30 83 Ga -6.7316 -6.9153 0.5924 0
M  V30 84 Ba -5.5534 -7.4622 1.2823 0
M  V30 85 Ba -2.2086 1.3861 -2.1834 0
M  V30 86 Ga -3.0554 2.5352 -1.8122 0
M  V30 87 Ba -3.9023 3.6836 -1.4394 0
M  V30 88 Ba -7.4611 -0.3286 -1.0223 0
M  V30 89 Ga -7.3775 -1.7500 -1.4097 0
M  V30 90 Ba -7.2960 -3.1730 -1.7917 0
M  V30 91 Ba 8.4826 3.6428 1.1706 0
M  V30 92 Ga 7.0767 3.7514 0.7394 0
M  V30 93 Ba 5.6817 3.8718 0.2770 0
M  V30 94 Ba -6.3899 -5.5762 -1.8966 0
M  V30 95 Ga -5.2243 -6.2233 -1.2338 0
M  V30 96 Ba -4.1137 -6.8190 -0.4408 0
M  V30 97 Ba 8.0094 -0.3615 1.4602 0
M  V30 98 Ga 7.8848 0.8600 2.3051 0
M  V30 99 Ba 7.9727 2.1567 3.0345 0
M  V30 END ATOM
M  V30 BEGIN BOND
M  V30 1 1 1 2
M  V30 2 1 1 3
M  V30 3 1 1 4
M  V30 4 1 1 5
M  V30 5 1 6 7
M  V30 6 1 6 8
M  V30 7 1 6 9
M  V30 8 1 6 10
M  V30 9 1 11 12
M  V30 10 1 11 13
M  V30 11 1 11 14
M  V30 12 1 11 15
M  V30 13 1 16 17
M  V30 14 1 16 18
M  V30 15 1 16 19
M  V30 16 1 16 20
M  V30 17 1 21 22
M  V30 18 1 21 23
M  V30 19 1 21 24
M  V30 20 1 21 25
M  V30 21 1 26 27
M  V30 22 1 26 28
M  V30 23 1 26 29
M  V30 24 1 26 30
M  V30 25 1 31 32
M  V30 26 1 31 33
M  V30 27 1 31 34
M  V30 28 1 31 35
M  V30 29 1 36 37
M  V30 30 1 36 38
M  V30 31 1 36 39
M  V30 32 1 36 40
M  V30 33 1 41 42
M  V30 34 1 41 43
M  V30 35 1 41 44
M  V30 36 1 41 45
M  V30 37 1 46 47
M  V30 38 1 47 48
M  V30 39 1 49 50
M  V30 40 1 50 51
M  V30 41 1 52 53
M  V30 42 1 53 54
M  V30 43 1 55 56
M  V30 44 1 56 57
M  V30 45 1 58 59
M  V30 46 1 59 60
M  V30 47 1 61 62
M  V30 48 1 62 63
M  V30 49 1 64 65
M  V30 50 1 65 66
M  V30 51 1 67 68
M  V30 52 1 68 69
M  V30 53 1 70 71
M  V30 54 1 71 72
M  V30 55 1 73 74
M  V30 56 1 74 75
M  V30 57 1 76 77
M  V30 58 1 77 78
M  V30 59 1 79 80
M  V30 60 1 80 81
M  V30 61 1 82 83
M  V30 62 1 83 84
M  V30 63 1 85 86
M  V30 64 1 86 87
M  V30 65 1 88 89
M  V30 66 1 89 90
M  V30 67 1 91 92
M  V30 68 1 92 93
M  V30 69 1 94 95
M  V30 70 1 95 96
M  V30 71 1 97 98
M  V30 72 1 98 99
M  V30 73 1 2 76
M  V30 74 1 3 67
M  V30 75 1 4 58
M  V30 76 1 5 85
M  V30 77 1 7 79
M  V30 78 1 8 49
M  V30 79 1 9 46
M  V30 80 1 10 97
M  V30 81 1 12 99
M  V30 82 1 13 81
M  V30 83 1 14 48
M  V30 84 1 15 91
M  V30 85 1 17 73
M  V30 86 1 18 88
M  V30 87 1 19 64
M  V30 88 1 20 70
M  V30 89 1 22 61
M  V30 90 1 23 90
M  V30 91 1 24 94
M  V30 92 1 25 82
M  V30 93 1 27 72
M  V30 94 1 28 87
M  V30 95 1 29 75
M  V30 96 1 30 66
M  V30 97 1 32 96
M  V30 98 1 33 84
M  V30 99 1 34 63
M  V30 100 1 35 69
M  V30 101 1 37 93
M  V30 102 1 38 60
M  V30 103 1 39 52
M  V30 104 1 40 55
M  V30 105 1 42 78
M  V30 106 1 43 54
M  V30 107 1 44 51
M  V30 108 1 45 57
M  V30 END BOND
M  V30 END CTAB
M  END

$$$$
