
     RDKit          3D

  0  0  0  0  0  0  0  0  0  0999 V3000
M  V30 BEGIN CTAB
M  V30 COUNTS 99 108 0 0 0
M  V30 BEGIN ATOM
M  V30 1 Pd 0.8728 -0.1159 5.2619 0
M  V30 2 Pb 1.8534 0.0503 5.3642 0
M  V30 3 Pb 0.7239 0.8701 5.3497 0
M  V30 4 Pb 1.0406 -1.1025 5.2867 0
M  V30 5 Pb -0.0917 -0.2849 5.0528 0
M  V30 6 Pd -4.0144 6.0381 -1.4884 0
M  V30 7 Pb -4.1151 5.6151 -2.3845 0
M  V30 8 Pb -3.0480 6.2306 -1.6429 0
M  V30 9 Pb -4.9559 5.7995 -1.2592 0
M  V30 10 Pb -3.9147 6.4265 -0.5681 0
M  V30 11 Pd 3.8087 -0.1526 -5.1737 0
M  V30 12 Pb 4.6236 -0.6561 -4.8923 0
M  V30 13 Pb 2.9670 0.3287 -5.4184 0
M  V30 14 Pb 3.4992 -0.9192 -5.7334 0
M  V30 15 Pb 4.0931 0.5570 -4.5256 0
M  V30 16 Pd -0.0836 -6.1574 -3.7685 0
M  V30 17 Pb 0.3151 -5.7411 -4.5844 0
M  V30 18 Pb -0.4291 -6.5318 -2.9101 0
M  V30 19 Pb -0.9185 -5.6194 -3.8830 0
M  V30 20 Pb 0.7724 -6.6368 -3.5725 0
M  V30 21 Pd -3.7322 0.8367 -3.7079 0
M  V30 22 Pb -3.9315 1.8079 -3.8432 0
M  V30 23 Pb -2.9356 0.9670 -4.2998 0
M  V30 24 Pb -3.6032 -0.1569 -3.7047 0
M  V30 25 Pb -4.5024 0.7169 -3.0751 0
M  V30 26 Pd 3.2893 -6.8958 2.4063 0
M  V30 27 Pb 2.3547 -7.1500 2.1642 0
M  V30 28 Pb 4.2170 -6.5756 2.5962 0
M  V30 29 Pb 2.9602 -6.4495 3.2365 0
M  V30 30 Pb 3.5637 -7.2554 1.5144 0
M  V30 31 Pd 7.0779 -0.7621 1.1720 0
M  V30 32 Pb 6.7788 -0.3952 2.0532 0
M  V30 33 Pb 7.2882 -1.6310 1.6180 0
M  V30 34 Pb 6.7761 0.0561 0.6782 0
M  V30 35 Pb 7.3073 -1.1476 0.2804 0
M  V30 36 Pd -5.5400 2.1370 1.6026 0
M  V30 37 Pb -5.7245 1.5892 0.7801 0
M  V30 38 Pb -5.3887 2.6648 2.4437 0
M  V30 39 Pb -6.0396 2.8879 1.1675 0
M  V30 40 Pb -5.0582 1.3866 2.0569 0
M  V30 41 Pd -1.5847 5.0627 3.6732 0
M  V30 42 Pb -0.8087 5.3609 3.1225 0
M  V30 43 Pb -0.9897 4.5277 4.2728 0
M  V30 44 Pb -2.4124 4.7370 4.1287 0
M  V30 45 Pb -2.1706 5.6612 3.1155 0
M  V30 46 Ag 2.5918 0.1816 5.3679 0
M  V30 47 Fe 4.6014 0.0456 4.1092 0
M  V30 48 Ag 6.5135 -0.1638 2.7158 0
M  V30 49 Ag -1.5345 -5.1933 -3.9210 0
M  V30 50 Fe -2.5195 -3.0323 -3.8374 0
M  V30 51 Ag -3.5790 -0.9065 -3.7621 0
M  V30 52 Ag -0.5908 -6.7962 -2.2293 0
M  V30 53 Fe 0.3889 -7.1235 -0.0938 0
M  V30 54 Ag 1.6740 -7.3002 1.8924 0
M  V30 55 Ag 4.3452 1.0039 -3.9752 0
M  V30 56 Fe 5.4274 0.9539 -1.8579 0
M  V30 57 Ag 6.5129 0.5989 0.2283 0
M  V30 58 Ag -2.3148 6.3349 -1.5683 0
M  V30 59 Fe -0.9173 6.0832 0.3205 0
M  V30 60 Ag -0.3710 5.5886 2.5656 0
M  V30 61 Ag 5.2227 -0.9980 -4.6029 0
M  V30 62 Fe 6.4257 -1.2952 -2.5801 0
M  V30 63 Ag 7.3990 -1.3957 -0.4191 0
M  V30 64 Ag 1.3990 -6.9660 -3.3230 0
M  V30 65 Fe 2.6612 -7.3140 -1.3411 0
M  V30 66 Ag 3.6691 -7.4717 0.8040 0
M  V30 67 Ag 3.2182 -1.5169 -6.0850 0
M  V30 68 Fe 1.9409 -3.4884 -5.7492 0
M  V30 69 Ag 0.6498 -5.3883 -5.1537 0
M  V30 70 Ag 1.1791 -1.8362 5.3696 0
M  V30 71 Fe 1.9316 -3.9535 4.6004 0
M  V30 72 Ag 2.6850 -6.0653 3.8169 0
M  V30 73 Ag -0.7945 -0.4365 4.8343 0
M  V30 74 Fe -2.7554 0.1968 3.6504 0
M  V30 75 Ag -4.7007 0.8622 2.4584 0
M  V30 76 Ag 4.8944 -6.2761 2.7112 0
M  V30 77 Fe 6.2325 -4.3434 2.3790 0
M  V30 78 Ag 7.3674 -2.3070 1.9308 0
M  V30 79 Ag 2.3110 0.6382 -5.6098 0
M  V30 80 Fe -0.0116 0.8830 -5.1741 0
M  V30 81 Ag -2.3326 1.1144 -4.7227 0
M  V30 82 Ba -4.2096 5.2798 -3.0443 0
M  V30 83 Ga -4.1331 3.8851 -3.5138 0
M  V30 84 Ba -4.0763 2.5148 -4.0522 0
M  V30 85 Ba -5.0702 0.5802 -2.5980 0
M  V30 86 Ga -5.4558 0.9174 -1.2084 0
M  V30 87 Ba -5.9267 1.1958 0.1679 0
M  V30 88 Ba -3.8562 6.7217 0.1229 0
M  V30 89 Ga -3.2090 6.3909 1.4136 0
M  V30 90 Ba -2.6070 6.1561 2.7464 0
M  V30 91 Ba -5.6366 5.5970 -1.0240 0
M  V30 92 Ga -6.0588 4.5200 -0.1094 0
M  V30 93 Ba -6.4232 3.4272 0.8115 0
M  V30 94 Ba -5.2729 3.0036 3.1080 0
M  V30 95 Ga -4.1794 3.7564 3.7589 0
M  V30 96 Ba -3.0765 4.5100 4.3927 0
M  V30 97 Ba 0.6758 1.6041 5.5013 0
M  V30 98 Ga 0.0311 2.8563 5.0616 0
M  V30 99 Ba -0.5261 4.1876 4.7540 0
M  V30 END ATOM
M  V30 BEGIN BOND
M  V30 1 1 1 2
M  V30 2 1 1 3
M  V30 3 1 1 4
M  V30 4 1 1 5
M  V30 5 1 6 7
M  V30 6 1 6 8
M  V30 7 1 6 9
M  V30 8 1 6 10
M  V30 9 1 11 12
M  V30 10 1 11 13
M  V30 11 1 11 14
M  V30 12 1 11 15
M  V30 13 1 16 17
M  V30 14 1 16 18
M  V30 15 1 16 19
M  V30 16 1 16 20
M  V30 17 1 21 22
M  V30 18 1 21 23
M  V30 19 1 21 24
M  V30 20 1 21 25
M  V30 21 1 26 27
M  V30 22 1 26 28
M  V30 23 1 26 29
M  V30 24 1 26 30
M  V30 25 1 31 32
M  V30 26 1 31 33
M  V30 27 1 31 34
M  V30 28 1 31 35
M  V30 29 1 36 37
M  V30 30 1 36 38
M  V30 31 1 36 39
M  V30 32 1 36 40
M  V30 33 1 41 42
M  V30 34 1 41 43
M  V30 35 1 41 44
M  V30 36 1 41 45
M  V30 37 1 46 47
M  V30 38 1 47 48
M  V30 39 1 49 50
M  V30 40 1 50 51
M  V30 41 1 52 53
M  V30 42 1 53 54
M  V30 43 1 55 56
M  V30 44 1 56 57
M  V30 45 1 58 59
M  V30 46 1 59 60
M  V30 47 1 61 62
M  V30 48 1 62 63
M  V30 49 1 64 65
M  V30 50 1 65 66
M  V30 51 1 67 68
M  V30 52 1 68 69
M  V30 53 1 70 71
M  V30 54 1 71 72
M  V30 55 1 73 74
M  V30 56 1 74 75
M  V30 57 1 76 77
M  V30 58 1 77 78
M  V30 59 1 79 80
M  V30 60 1 80 81
M  V30 61 1 82 83
M  V30 62 1 83 84
M  V30 63 1 85 86
M  V30 64 1 86 87
M  V30 65 1 88 89
M  V30 66 1 89 90
M  V30 67 1 91 92
M  V30 68 1 92 93
M  V30 69 1 94 95
M  V30 70 1 95 96
M  V30 71 1 97 98
M  V30 72 1 98 99
M  V30 73 1 2 46
M  V30 74 1 3 97
M  V30 75 1 4 70
M  V30 76 1 5 73
M  V30 77 1 7 82
M  V30 78 1 8 58
M  V30 79 1 9 91
M  V30 80 1 10 88
M  V30 81 1 12 61
M  V30 82 1 13 79
M  V30 83 1 14 67
M  V30 84 1 15 55
M  V30 85 1 17 69
M  V30 86 1 18 52
M  V30 87 1 19 49
M  V30 88 1 20 64
M  V30 89 1 22 84
M  V30 90 1 23 81
M  V30 91 1 24 51
M  V30 92 1 25 85
M  V30 93 1 27 54
M  V30 94 1 28 76
M  V30 95 1 29 72
M  V30 96 1 30 66
M  V30 97 1 32 48
M  V30 98 1 33 78
M  V30 99 1 34 57
M  V30 100 1 35 63
M  V30 101 1 37 87
M  V30 102 1 38 94
M  V30 103 1 39 93
M  V30 104 1 40 75
M  V30 105 1 42 60
M  V30 106 1 43 99
M  V30 107 1 44 96
M  V30 108 1 45 90
M  V30 END BOND
M  V30 END CTAB
M  END

$$$$
