
     RDKit          3D

  0  0  0  0  0  0  0  0  0  0999 V3000
M  V30 BEGIN CTAB
M  V30 COUNTS 99 108 0 0 0
M  V30 BEGIN ATOM
M  V30 1 Pd -5.6588 2.8873 3.7767 0
M  V30 2 Pb -4.9879 3.5984 3.9792 0
M  V30 3 Pb -5.4928 2.9864 2.7969 0
M  V30 4 Pb -5.6579 2.6498 4.7546 0
M  V30 5 Pb -6.2958 2.1369 3.6132 0
M  V30 6 Pd 5.6623 2.9389 -1.2210 0
M  V30 7 Pb 5.9741 2.4409 -0.4044 0
M  V30 8 Pb 5.2201 3.2414 -2.0650 0
M  V30 9 Pb 6.2287 2.3462 -1.7872 0
M  V30 10 Pb 5.0632 3.4761 -0.6323 0
M  V30 11 Pd 3.4416 -1.0401 2.2286 0
M  V30 12 Pb 4.2696 -0.5279 1.9468 0
M  V30 13 Pb 2.6657 -1.5591 2.5800 0
M  V30 14 Pb 3.1141 -0.1964 2.6469 0
M  V30 15 Pb 3.7140 -1.8524 1.7153 0
M  V30 16 Pd -2.8751 -0.9492 6.2993 0
M  V30 17 Pb -2.2843 -1.6353 5.8861 0
M  V30 18 Pb -3.4888 -0.2133 6.6183 0
M  V30 19 Pb -3.6818 -1.5048 6.1091 0
M  V30 20 Pb -2.0682 -0.3611 6.3958 0
M  V30 21 Pd -0.5408 2.7885 3.0711 0
M  V30 22 Pb -0.0097 2.1574 2.4959 0
M  V30 23 Pb -0.3081 2.3220 3.9302 0
M  V30 24 Pb -1.0905 3.4516 3.5761 0
M  V30 25 Pb -0.7978 3.2483 2.2253 0
M  V30 26 Pd 1.2783 -4.3994 -1.9459 0
M  V30 27 Pb 1.9808 -4.1323 -1.2765 0
M  V30 28 Pb 0.4919 -3.9710 -1.4412 0
M  V30 29 Pb 2.0071 -4.7535 -2.5323 0
M  V30 30 Pb 0.6405 -4.7810 -2.5987 0
M  V30 31 Pd 3.4699 -1.8044 -5.6961 0
M  V30 32 Pb 3.3759 -0.8082 -5.7681 0
M  V30 33 Pb 4.4318 -1.6467 -5.4939 0
M  V30 34 Pb 2.4884 -1.9250 -5.8359 0
M  V30 35 Pb 3.5830 -2.7817 -5.5112 0
M  V30 36 Pd -3.8318 -1.2926 -2.4323 0
M  V30 37 Pb -3.1965 -1.7809 -1.7890 0
M  V30 38 Pb -3.8604 -0.4507 -1.8894 0
M  V30 39 Pb -3.8849 -2.1009 -3.0013 0
M  V30 40 Pb -4.2913 -0.7817 -3.1573 0
M  V30 41 Pd -0.8735 1.0224 -3.9946 0
M  V30 42 Pb -1.0922 1.8415 -3.4720 0
M  V30 43 Pb -1.6643 1.1804 -4.5853 0
M  V30 44 Pb -0.1966 0.8152 -3.2811 0
M  V30 45 Pb -0.6689 0.1881 -4.5107 0
M  V30 46 Ag -5.2744 2.9821 2.0798 0
M  V30 47 Fe -4.6237 1.6127 0.2493 0
M  V30 48 Ag -3.9698 0.2175 -1.5604 0
M  V30 49 Ag 6.5718 1.8577 -2.2338 0
M  V30 50 Fe 6.0694 0.1554 -3.8013 0
M  V30 51 Ag 5.1098 -1.4312 -5.2739 0
M  V30 52 Ag 4.6095 3.7080 -0.0907 0
M  V30 53 Fe 3.5357 2.4679 1.6076 0
M  V30 54 Ag 2.9389 0.5122 2.7883 0
M  V30 55 Ag 2.1159 -1.9700 2.8761 0
M  V30 56 Fe 0.1465 -2.1047 4.1892 0
M  V30 57 Ag -1.8169 -2.0836 5.5174 0
M  V30 58 Ag -0.9851 3.5446 1.5667 0
M  V30 59 Fe -1.1549 3.1123 -0.7568 0
M  V30 60 Ag -1.2288 2.4198 -3.0217 0
M  V30 61 Ag 0.1129 -5.0177 -3.0548 0
M  V30 62 Fe -2.0340 -4.2315 -3.5865 0
M  V30 63 Ag -3.8158 -2.7153 -3.4004 0
M  V30 64 Ag -6.6468 1.4820 3.6160 0
M  V30 65 Fe -5.9280 -0.5220 4.6277 0
M  V30 66 Ag -4.3361 -1.7507 5.8575 0
M  V30 67 Ag 4.8679 3.2834 -2.7265 0
M  V30 68 Fe 4.0431 1.7630 -4.3578 0
M  V30 69 Ag 3.3658 -0.0558 -5.7319 0
M  V30 70 Ag 0.3534 1.7473 1.9744 0
M  V30 71 Fe 0.3841 1.1498 -0.3323 0
M  V30 72 Ag 0.2205 0.6859 -2.6640 0
M  V30 73 Ba -1.4444 0.0607 6.4210 0
M  V30 74 Ga -0.8052 1.0326 5.5044 0
M  V30 75 Ba -0.1533 2.0058 4.5982 0
M  V30 76 Ba -5.5867 2.4318 5.4765 0
M  V30 77 Ga -4.7811 1.3814 6.1549 0
M  V30 78 Ba -3.9746 0.3309 6.8323 0
M  V30 79 Ba 6.1697 2.0013 0.1802 0
M  V30 80 Ga 5.5013 0.9377 0.9792 0
M  V30 81 Ba 4.9139 -0.1369 1.8252 0
M  V30 82 Ba 1.7465 -1.9964 -5.9083 0
M  V30 83 Ga 0.5997 -1.2120 -5.4107 0
M  V30 84 Ba -0.5534 -0.4344 -4.9171 0
M  V30 85 Ba -4.4587 4.0913 4.1721 0
M  V30 86 Ga -2.9910 4.0607 4.0533 0
M  V30 87 Ba -1.5294 3.9639 3.9006 0
M  V30 88 Ba -0.1149 -3.6630 -1.0640 0
M  V30 89 Ga -1.3971 -2.8947 -1.2675 0
M  V30 90 Ba -2.7002 -2.1354 -1.3064 0
M  V30 91 Ba 3.8772 -2.4603 1.3089 0
M  V30 92 Ga 3.1830 -3.2160 0.2428 0
M  V30 93 Ba 2.5825 -4.0447 -0.8254 0
M  V30 94 Ba 2.5166 -4.9815 -3.0339 0
M  V30 95 Ga 3.1230 -4.2782 -4.1816 0
M  V30 96 Ba 3.6790 -3.4975 -5.3046 0
M  V30 97 Ba -4.4879 -0.3570 -3.7412 0
M  V30 98 Ga -3.5158 0.4945 -4.4461 0
M  V30 99 Ba -2.3316 1.2278 -4.9224 0
M  V30 END ATOM
M  V30 BEGIN BOND
M  V30 1 1 1 2
M  V30 2 1 1 3
M  V30 3 1 1 4
M  V30 4 1 1 5
M  V30 5 1 6 7
M  V30 6 1 6 8
M  V30 7 1 6 9
M  V30 8 1 6 10
M  V30 9 1 11 12
M  V30 10 1 11 13
M  V30 11 1 11 14
M  V30 12 1 11 15
M  V30 13 1 16 17
M  V30 14 1 16 18
M  V30 15 1 16 19
M  V30 16 1 16 20
M  V30 17 1 21 22
M  V30 18 1 21 23
M  V30 19 1 21 24
M  V30 20 1 21 25
M  V30 21 1 26 27
M  V30 22 1 26 28
M  V30 23 1 26 29
M  V30 24 1 26 30
M  V30 25 1 31 32
M  V30 26 1 31 33
M  V30 27 1 31 34
M  V30 28 1 31 35
M  V30 29 1 36 37
M  V30 30 1 36 38
M  V30 31 1 36 39
M  V30 32 1 36 40
M  V30 33 1 41 42
M  V30 34 1 41 43
M  V30 35 1 41 44
M  V30 36 1 41 45
M  V30 37 1 46 47
M  V30 38 1 47 48
M  V30 39 1 49 50
M  V30 40 1 50 51
M  V30 41 1 52 53
M  V30 42 1 53 54
M  V30 43 1 55 56
M  V30 44 1 56 57
M  V30 45 1 58 59
M  V30 46 1 59 60
M  V30 47 1 61 62
M  V30 48 1 62 63
M  V30 49 1 64 65
M  V30 50 1 65 66
M  V30 51 1 67 68
M  V30 52 1 68 69
M  V30 53 1 70 71
M  V30 54 1 71 72
M  V30 55 1 73 74
M  V30 56 1 74 75
M  V30 57 1 76 77
M  V30 58 1 77 78
M  V30 59 1 79 80
M  V30 60 1 80 81
M  V30 61 1 82 83
M  V30 62 1 83 84
M  V30 63 1 85 86
M  V30 64 1 86 87
M  V30 65 1 88 89
M  V30 66 1 89 90
M  V30 67 1 91 92
M  V30 68 1 92 93
M  V30 69 1 94 95
M  V30 70 1 95 96
M  V30 71 1 97 98
M  V30 72 1 98 99
M  V30 73 1 2 85
M  V30 74 1 3 46
M  V30 75 1 4 76
M  V30 76 1 5 64
M  V30 77 1 7 79
M  V30 78 1 8 67
M  V30 79 1 9 49
M  V30 80 1 10 52
M  V30 81 1 12 81
M  V30 82 1 13 55
M  V30 83 1 14 54
M  V30 84 1 15 91
M  V30 85 1 17 57
M  V30 86 1 18 78
M  V30 87 1 19 66
M  V30 88 1 20 73
M  V30 89 1 22 70
M  V30 90 1 23 75
M  V30 91 1 24 87
M  V30 92 1 25 58
M  V30 93 1 27 93
M  V30 94 1 28 88
M  V30 95 1 29 94
M  V30 96 1 30 61
M  V30 97 1 32 69
M  V30 98 1 33 51
M  V30 99 1 34 82
M  V30 100 1 35 96
M  V30 101 1 37 90
M  V30 102 1 38 48
M  V30 103 1 39 63
M  V30 104 1 40 97
M  V30 105 1 42 60
M  V30 106 1 43 99
M  V30 107 1 44 72
M  V30 108 1 45 84
M  V30 END BOND
M  V30 END CTAB
M  END

$$$$
