
     RDKit          3D

  0  0  0  0  0  0  0  0  0  0999 V3000
M  V30 BEGIN CTAB
M  V30 COUNTS 99 108 0 0 0
M  V30 BEGIN ATOM
M  V30 1 Pd -3.1442 4.0135 0.6443 0
M  V30 2 Pb -2.9229 4.8556 0.1469 0
M  V30 3 Pb -2.3842 4.1875 1.2683 0
M  V30 4 Pb -3.9321 3.8373 0.0539 0
M  V30 5 Pb -3.3463 3.1589 1.1237 0
M  V30 6 Pd 3.4853 -3.2927 7.0833 0
M  V30 7 Pb 3.7960 -3.5966 6.1833 0
M  V30 8 Pb 3.1782 -2.9684 7.9701 0
M  V30 9 Pb 2.7013 -3.9115 7.0900 0
M  V30 10 Pb 4.0891 -2.4950 7.0440 0
M  V30 11 Pd 3.8279 0.7044 -4.8117 0
M  V30 12 Pb 4.1515 1.2975 -4.0853 0
M  V30 13 Pb 4.3889 -0.0402 -4.4593 0
M  V30 14 Pb 3.5386 0.0559 -5.5195 0
M  V30 15 Pb 3.2178 1.4559 -5.1395 0
M  V30 16 Pd -0.0272 -3.1950 -5.6189 0
M  V30 17 Pb 0.8818 -2.9845 -5.9819 0
M  V30 18 Pb -0.9680 -3.3173 -5.2931 0
M  V30 19 Pb 0.3029 -3.9058 -4.9907 0
M  V30 20 Pb -0.3999 -2.5640 -6.2931 0
M  V30 21 Pd 2.5241 -4.9938 -0.5533 0
M  V30 22 Pb 3.0565 -4.8396 0.2785 0
M  V30 23 Pb 3.3118 -4.7173 -1.0973 0
M  V30 24 Pb 2.0218 -5.2083 -1.3948 0
M  V30 25 Pb 1.7209 -5.1806 0.0113 0
M  V30 26 Pd -5.5980 1.2225 -5.8627 0
M  V30 27 Pb -5.5977 0.2736 -5.5419 0
M  V30 28 Pb -5.4160 2.1676 -6.1170 0
M  V30 29 Pb -6.0364 1.5504 -5.0294 0
M  V30 30 Pb -5.0374 0.9241 -6.6275 0
M  V30 31 Pd -0.0258 5.2803 -3.6415 0
M  V30 32 Pb -0.5797 5.8084 -2.9942 0
M  V30 33 Pb -0.7973 5.2932 -4.2767 0
M  V30 34 Pb 0.5195 4.6988 -4.2831 0
M  V30 35 Pb 0.7398 5.3024 -3.0109 0
M  V30 36 Pd -1.4999 -2.1528 5.3458 0
M  V30 37 Pb -1.3546 -2.8416 4.6329 0
M  V30 38 Pb -1.7165 -1.4526 6.0393 0
M  V30 39 Pb -1.0085 -2.7802 5.9639 0
M  V30 40 Pb -2.0341 -1.5951 4.7090 0
M  V30 41 Pd 0.4403 2.4600 7.3956 0
M  V30 42 Pb 0.5748 1.9489 8.2362 0
M  V30 43 Pb 0.3249 2.9654 6.5409 0
M  V30 44 Pb -0.5103 2.1525 7.4169 0
M  V30 45 Pb 1.4367 2.5189 7.3176 0
M  V30 46 Ag 4.0540 -3.7971 5.5089 0
M  V30 47 Fe 3.7284 -4.2721 3.2054 0
M  V30 48 Ag 3.4744 -4.7598 0.8955 0
M  V30 49 Ag 1.1295 -5.2599 0.4652 0
M  V30 50 Fe -0.0855 -4.3386 2.2873 0
M  V30 51 Ag -1.2649 -3.3760 4.1116 0
M  V30 52 Ag -1.6977 -3.3198 -5.1051 0
M  V30 53 Fe -3.6697 -1.9896 -5.1417 0
M  V30 54 Ag -5.4571 -0.4290 -5.3122 0
M  V30 55 Ag 4.3764 -1.8004 7.0294 0
M  V30 56 Fe 3.5179 0.4149 7.1254 0
M  V30 57 Ag 2.1710 2.3699 7.2572 0
M  V30 58 Ag 2.9093 -2.6331 8.5737 0
M  V30 59 Fe 1.7835 -0.6094 9.0302 0
M  V30 60 Ag 0.7272 1.4883 8.7963 0
M  V30 61 Ag 4.2900 1.7896 -3.5516 0
M  V30 62 Fe 3.1118 3.6566 -2.7355 0
M  V30 63 Ag 1.3584 5.2221 -2.6155 0
M  V30 64 Ag -0.7450 -2.1292 -6.7909 0
M  V30 65 Fe -2.5980 -0.6946 -7.1305 0
M  V30 66 Ag -4.5242 0.6819 -7.1080 0
M  V30 67 Ag -4.5350 3.6715 -0.3611 0
M  V30 68 Fe -5.4764 2.7710 -2.3454 0
M  V30 69 Ag -6.2677 1.8455 -4.3830 0
M  V30 70 Ag -3.5087 2.5074 1.4591 0
M  V30 71 Fe -2.9445 0.6766 2.8642 0
M  V30 72 Ag -2.4738 -1.1944 4.2507 0
M  V30 73 Ag -1.8302 4.3197 1.7544 0
M  V30 74 Fe -0.7829 3.8282 3.8275 0
M  V30 75 Ag 0.2746 3.3476 5.8979 0
M  V30 76 Ag -5.1477 2.8521 -6.2400 0
M  V30 77 Fe -3.3129 4.1949 -5.5654 0
M  V30 78 Ag -1.3954 5.3121 -4.7278 0
M  V30 79 Ag 4.7429 -0.6411 -4.1932 0
M  V30 80 Fe 4.4526 -2.5837 -2.8668 0
M  V30 81 Ag 3.8718 -4.4284 -1.4968 0
M  V30 82 Ba -2.7392 5.4884 -0.2172 0
M  V30 83 Ga -1.8752 5.8349 -1.3660 0
M  V30 84 Ba -1.0139 6.1914 -2.5137 0
M  V30 85 Ba 0.4828 -4.5007 -4.5634 0
M  V30 86 Ga 1.0981 -4.8831 -3.2735 0
M  V30 87 Ba 1.6800 -5.4300 -2.0280 0
M  V30 88 Ba 2.7744 2.0244 -5.4141 0
M  V30 89 Ga 1.8458 3.1333 -5.0133 0
M  V30 90 Ba 0.9006 4.2811 -4.8094 0
M  V30 91 Ba 3.4060 -0.5020 -6.0084 0
M  V30 92 Ga 2.4495 -1.6214 -6.1492 0
M  V30 93 Ba 1.5109 -2.7514 -6.3216 0
M  V30 94 Ba 2.0351 -4.2542 7.1410 0
M  V30 95 Ga 0.6821 -3.8004 6.7371 0
M  V30 96 Ba -0.6738 -3.3470 6.3428 0
M  V30 97 Ba -1.9783 -0.8918 6.4800 0
M  V30 98 Ga -1.5697 0.4484 6.9684 0
M  V30 99 Ba -1.1646 1.7860 7.4670 0
M  V30 END ATOM
M  V30 BEGIN BOND
M  V30 1 1 1 2
M  V30 2 1 1 3
M  V30 3 1 1 4
M  V30 4 1 1 5
M  V30 5 1 6 7
M  V30 6 1 6 8
M  V30 7 1 6 9
M  V30 8 1 6 10
M  V30 9 1 11 12
M  V30 10 1 11 13
M  V30 11 1 11 14
M  V30 12 1 11 15
M  V30 13 1 16 17
M  V30 14 1 16 18
M  V30 15 1 16 19
M  V30 16 1 16 20
M  V30 17 1 21 22
M  V30 18 1 21 23
M  V30 19 1 21 24
M  V30 20 1 21 25
M  V30 21 1 26 27
M  V30 22 1 26 28
M  V30 23 1 26 29
M  V30 24 1 26 30
M  V30 25 1 31 32
M  V30 26 1 31 33
M  V30 27 1 31 34
M  V30 28 1 31 35
M  V30 29 1 36 37
M  V30 30 1 36 38
M  V30 31 1 36 39
M  V30 32 1 36 40
M  V30 33 1 41 42
M  V30 34 1 41 43
M  V30 35 1 41 44
M  V30 36 1 41 45
M  V30 37 1 46 47
M  V30 38 1 47 48
M  V30 39 1 49 50
M  V30 40 1 50 51
M  V30 41 1 52 53
M  V30 42 1 53 54
M  V30 43 1 55 56
M  V30 44 1 56 57
M  V30 45 1 58 59
M  V30 46 1 59 60
M  V30 47 1 61 62
M  V30 48 1 62 63
M  V30 49 1 64 65
M  V30 50 1 65 66
M  V30 51 1 67 68
M  V30 52 1 68 69
M  V30 53 1 70 71
M  V30 54 1 71 72
M  V30 55 1 73 74
M  V30 56 1 74 75
M  V30 57 1 76 77
M  V30 58 1 77 78
M  V30 59 1 79 80
M  V30 60 1 80 81
M  V30 61 1 82 83
M  V30 62 1 83 84
M  V30 63 1 85 86
M  V30 64 1 86 87
M  V30 65 1 88 89
M  V30 66 1 89 90
M  V30 67 1 91 92
M  V30 68 1 92 93
M  V30 69 1 94 95
M  V30 70 1 95 96
M  V30 71 1 97 98
M  V30 72 1 98 99
M  V30 73 1 2 82
M  V30 74 1 3 73
M  V30 75 1 4 67
M  V30 76 1 5 70
M  V30 77 1 7 46
M  V30 78 1 8 58
M  V30 79 1 9 94
M  V30 80 1 10 55
M  V30 81 1 12 61
M  V30 82 1 13 79
M  V30 83 1 14 91
M  V30 84 1 15 88
M  V30 85 1 17 93
M  V30 86 1 18 52
M  V30 87 1 19 85
M  V30 88 1 20 64
M  V30 89 1 22 48
M  V30 90 1 23 81
M  V30 91 1 24 87
M  V30 92 1 25 49
M  V30 93 1 27 54
M  V30 94 1 28 76
M  V30 95 1 29 69
M  V30 96 1 30 66
M  V30 97 1 32 84
M  V30 98 1 33 78
M  V30 99 1 34 90
M  V30 100 1 35 63
M  V30 101 1 37 51
M  V30 102 1 38 97
M  V30 103 1 39 96
M  V30 104 1 40 72
M  V30 105 1 42 60
M  V30 106 1 43 75
M  V30 107 1 44 99
M  V30 108 1 45 57
M  V30 END BOND
M  V30 END CTAB
M  END

$$$$
