
     RDKit          3D

  0  0  0  0  0  0  0  0  0  0999 V3000
M  V30 BEGIN CTAB
M  V30 COUNTS 99 108 0 0 0
M  V30 BEGIN ATOM
M  V30 1 Pd -3.4938 -0.1470 -6.2329 0
M  V30 2 Pb -3.2382 -0.6319 -7.0698 0
M  V30 3 Pb -4.4545 -0.3269 -6.4593 0
M  V30 4 Pb -3.7981 0.3930 -5.4470 0
M  V30 5 Pb -2.5263 -0.0314 -5.9852 0
M  V30 6 Pd -4.4176 2.2229 1.2516 0
M  V30 7 Pb -4.9902 1.4090 1.3353 0
M  V30 8 Pb -4.1505 2.1352 2.2103 0
M  V30 9 Pb -3.7931 2.9949 1.1507 0
M  V30 10 Pb -4.6400 2.2876 0.2796 0
M  V30 11 Pd 6.7528 5.1454 2.7948 0
M  V30 12 Pb 6.4867 5.4737 3.7004 0
M  V30 13 Pb 6.1461 5.8025 2.3487 0
M  V30 14 Pb 6.8990 4.7155 1.9045 0
M  V30 15 Pb 7.3796 4.5052 3.2371 0
M  V30 16 Pd 5.7170 1.9948 6.5964 0
M  V30 17 Pb 4.7595 1.8335 6.9034 0
M  V30 18 Pb 5.8859 1.0172 6.6264 0
M  V30 19 Pb 6.6296 2.1354 6.2186 0
M  V30 20 Pb 5.5816 2.9881 6.5722 0
M  V30 21 Pd -5.0835 -4.5008 -7.3701 0
M  V30 22 Pb -4.2764 -5.0764 -7.3164 0
M  V30 23 Pb -5.4230 -4.9213 -6.5296 0
M  V30 24 Pb -5.7887 -3.7946 -7.3461 0
M  V30 25 Pb -4.6357 -4.0037 -8.1076 0
M  V30 26 Pd 0.3155 -2.8284 -3.1518 0
M  V30 27 Pb 0.1094 -3.4605 -3.8938 0
M  V30 28 Pb 0.5573 -2.2193 -2.3964 0
M  V30 29 Pb 0.3055 -3.6267 -2.5447 0
M  V30 30 Pb 0.2666 -2.0342 -3.7674 0
M  V30 31 Pd 2.8973 4.0367 -0.1402 0
M  V30 32 Pb 1.9581 4.3301 0.0352 0
M  V30 33 Pb 3.2070 4.9754 -0.0083 0
M  V30 34 Pb 2.5914 3.0841 -0.1767 0
M  V30 35 Pb 3.8506 3.7733 -0.3050 0
M  V30 36 Pd -3.3511 -4.8329 0.1395 0
M  V30 37 Pb -4.1534 -4.3309 0.4558 0
M  V30 38 Pb -2.9128 -4.6618 1.0242 0
M  V30 39 Pb -2.4958 -5.2321 -0.1944 0
M  V30 40 Pb -3.8461 -5.0708 -0.7006 0
M  V30 41 Pd 0.5664 -1.1035 6.0116 0
M  V30 42 Pb 0.0372 -1.8352 5.5788 0
M  V30 43 Pb -0.2067 -0.4773 5.9127 0
M  V30 44 Pb 1.1215 -0.3680 6.4490 0
M  V30 45 Pb 1.3266 -1.7336 6.1122 0
M  V30 46 Ag -5.5890 -5.2055 -5.8559 0
M  V30 47 Fe -4.9431 -5.2462 -3.5682 0
M  V30 48 Ag -4.2760 -5.2723 -1.2863 0
M  V30 49 Ag -3.6034 -5.3668 -7.2012 0
M  V30 50 Fe -1.7242 -4.8216 -5.8691 0
M  V30 51 Ag -0.0650 -3.9714 -4.4095 0
M  V30 52 Ag -5.3635 0.7619 1.3822 0
M  V30 53 Fe -5.1761 -1.5828 1.0732 0
M  V30 54 Ag -4.7008 -3.8734 0.6791 0
M  V30 55 Ag 0.7564 -1.7680 -1.8314 0
M  V30 56 Fe 1.5545 0.3230 -1.0342 0
M  V30 57 Ag 2.3472 2.3747 -0.1363 0
M  V30 58 Ag 5.8903 0.2780 6.6353 0
M  V30 59 Fe 4.1771 -1.3253 6.4494 0
M  V30 60 Ag 1.9669 -2.0934 6.1938 0
M  V30 61 Ag -4.0864 0.8254 -4.9046 0
M  V30 62 Fe -4.4038 1.5470 -2.6640 0
M  V30 63 Ag -4.7796 2.3355 -0.4550 0
M  V30 64 Ag -3.9178 2.0532 2.9176 0
M  V30 65 Fe -2.3717 1.0366 4.4054 0
M  V30 66 Ag -0.7922 -0.0160 5.8318 0
M  V30 67 Ag -2.6236 -4.5833 1.7141 0
M  V30 68 Fe -1.4709 -3.4350 3.4468 0
M  V30 69 Ag -0.3402 -2.4046 5.2660 0
M  V30 70 Ag -3.2902 3.5411 1.0599 0
M  V30 71 Fe -1.0227 4.0870 0.6191 0
M  V30 72 Ag 1.2596 4.5637 0.1741 0
M  V30 73 Ba 4.0370 1.7355 7.1449 0
M  V30 74 Ga 2.8073 0.9133 6.9135 0
M  V30 75 Ba 1.4986 0.1925 6.8171 0
M  V30 76 Ba -5.1649 -0.5138 -6.6260 0
M  V30 77 Ga -5.7664 -1.8172 -6.9732 0
M  V30 78 Ba -6.2185 -3.1830 -7.3056 0
M  V30 79 Ba 7.8381 4.0403 3.6046 0
M  V30 80 Ga 7.6124 3.1331 4.7423 0
M  V30 81 Ba 7.2843 2.2560 5.8785 0
M  V30 82 Ba 5.6973 6.2731 1.9764 0
M  V30 83 Ga 4.5742 6.0257 1.0572 0
M  V30 84 Ba 3.4685 5.6550 0.1588 0
M  V30 85 Ba 6.9124 4.3613 1.2438 0
M  V30 86 Ga 5.7822 3.9708 0.3768 0
M  V30 87 Ba 4.5814 3.6290 -0.4126 0
M  V30 88 Ba -1.7941 0.0370 -5.8123 0
M  V30 89 Ga -0.8002 -0.7107 -5.0051 0
M  V30 90 Ba 0.2297 -1.4237 -4.2118 0
M  V30 91 Ba -3.1183 -0.9894 -7.7187 0
M  V30 92 Ga -3.6364 -2.2731 -8.2201 0
M  V30 93 Ba -4.2302 -3.5753 -8.5639 0
M  V30 94 Ba 0.2628 -4.2563 -2.1334 0
M  V30 95 Ga -0.7710 -4.8732 -1.2749 0
M  V30 96 Ba -1.8193 -5.4699 -0.4197 0
M  V30 97 Ba 6.2405 5.6344 4.3902 0
M  V30 98 Ga 5.8749 4.7238 5.4944 0
M  V30 99 Ba 5.5333 3.7388 6.5410 0
M  V30 END ATOM
M  V30 BEGIN BOND
M  V30 1 1 1 2
M  V30 2 1 1 3
M  V30 3 1 1 4
M  V30 4 1 1 5
M  V30 5 1 6 7
M  V30 6 1 6 8
M  V30 7 1 6 9
M  V30 8 1 6 10
M  V30 9 1 11 12
M  V30 10 1 11 13
M  V30 11 1 11 14
M  V30 12 1 11 15
M  V30 13 1 16 17
M  V30 14 1 16 18
M  V30 15 1 16 19
M  V30 16 1 16 20
M  V30 17 1 21 22
M  V30 18 1 21 23
M  V30 19 1 21 24
M  V30 20 1 21 25
M  V30 21 1 26 27
M  V30 22 1 26 28
M  V30 23 1 26 29
M  V30 24 1 26 30
M  V30 25 1 31 32
M  V30 26 1 31 33
M  V30 27 1 31 34
M  V30 28 1 31 35
M  V30 29 1 36 37
M  V30 30 1 36 38
M  V30 31 1 36 39
M  V30 32 1 36 40
M  V30 33 1 41 42
M  V30 34 1 41 43
M  V30 35 1 41 44
M  V30 36 1 41 45
M  V30 37 1 46 47
M  V30 38 1 47 48
M  V30 39 1 49 50
M  V30 40 1 50 51
M  V30 41 1 52 53
M  V30 42 1 53 54
M  V30 43 1 55 56
M  V30 44 1 56 57
M  V30 45 1 58 59
M  V30 46 1 59 60
M  V30 47 1 61 62
M  V30 48 1 62 63
M  V30 49 1 64 65
M  V30 50 1 65 66
M  V30 51 1 67 68
M  V30 52 1 68 69
M  V30 53 1 70 71
M  V30 54 1 71 72
M  V30 55 1 73 74
M  V30 56 1 74 75
M  V30 57 1 76 77
M  V30 58 1 77 78
M  V30 59 1 79 80
M  V30 60 1 80 81
M  V30 61 1 82 83
M  V30 62 1 83 84
M  V30 63 1 85 86
M  V30 64 1 86 87
M  V30 65 1 88 89
M  V30 66 1 89 90
M  V30 67 1 91 92
M  V30 68 1 92 93
M  V30 69 1 94 95
M  V30 70 1 95 96
M  V30 71 1 97 98
M  V30 72 1 98 99
M  V30 73 1 2 91
M  V30 74 1 3 76
M  V30 75 1 4 61
M  V30 76 1 5 88
M  V30 77 1 7 52
M  V30 78 1 8 64
M  V30 79 1 9 70
M  V30 80 1 10 63
M  V30 81 1 12 97
M  V30 82 1 13 82
M  V30 83 1 14 85
M  V30 84 1 15 79
M  V30 85 1 17 73
M  V30 86 1 18 58
M  V30 87 1 19 81
M  V30 88 1 20 99
M  V30 89 1 22 49
M  V30 90 1 23 46
M  V30 91 1 24 78
M  V30 92 1 25 93
M  V30 93 1 27 51
M  V30 94 1 28 55
M  V30 95 1 29 94
M  V30 96 1 30 90
M  V30 97 1 32 72
M  V30 98 1 33 84
M  V30 99 1 34 57
M  V30 100 1 35 87
M  V30 101 1 37 54
M  V30 102 1 38 67
M  V30 103 1 39 96
M  V30 104 1 40 48
M  V30 105 1 42 69
M  V30 106 1 43 66
M  V30 107 1 44 75
M  V30 108 1 45 60
M  V30 END BOND
M  V30 END CTAB
M  END

$$$$
