
     RDKit          3D

  0  0  0  0  0  0  0  0  0  0999 V3000
M  V30 BEGIN CTAB
M  V30 COUNTS 99 108 0 0 0
M  V30 BEGIN ATOM
M  V30 1 Pd 2.2672 1.2937 -6.3427 0
M  V30 2 Pb 3.2217 1.1269 -6.1193 0
M  V30 3 Pb 2.0856 0.3112 -6.2411 0
M  V30 4 Pb 2.4886 2.2555 -6.4483 0
M  V30 5 Pb 1.2806 1.5161 -6.4597 0
M  V30 6 Pd -0.8941 -1.8534 4.9947 0
M  V30 7 Pb -1.6774 -2.1645 4.4523 0
M  V30 8 Pb -0.0783 -1.6187 5.5150 0
M  V30 9 Pb -0.7634 -2.7944 5.2997 0
M  V30 10 Pb -0.8038 -0.9550 4.5312 0
M  V30 11 Pd -4.7141 -0.9705 0.7395 0
M  V30 12 Pb -4.1822 -1.3747 -0.0024 0
M  V30 13 Pb -5.1780 -0.5515 1.5173 0
M  V30 14 Pb -4.3911 -1.6655 1.3800 0
M  V30 15 Pb -5.0260 -0.2828 0.0893 0
M  V30 16 Pd -2.0572 0.6956 4.5296 0
M  V30 17 Pb -1.9635 -0.2284 4.1523 0
M  V30 18 Pb -3.0504 0.5678 4.5305 0
M  V30 19 Pb -2.2088 1.6262 4.8456 0
M  V30 20 Pb -1.0730 0.9193 4.4523 0
M  V30 21 Pd 3.2790 0.6378 1.6005 0
M  V30 22 Pb 2.7176 0.8314 0.7931 0
M  V30 23 Pb 3.7869 0.4376 2.4321 0
M  V30 24 Pb 4.0060 0.2134 1.0501 0
M  V30 25 Pb 2.5774 1.0046 2.2352 0
M  V30 26 Pd 0.9706 -5.1842 0.2495 0
M  V30 27 Pb 0.2241 -4.8314 0.8172 0
M  V30 28 Pb 0.5517 -4.7183 -0.5240 0
M  V30 29 Pb 1.2784 -5.6465 1.0780 0
M  V30 30 Pb 1.7546 -5.4534 -0.3035 0
M  V30 31 Pd -2.1455 4.3812 -4.0321 0
M  V30 32 Pb -1.4410 5.0220 -4.3121 0
M  V30 33 Pb -2.3115 4.9191 -3.2089 0
M  V30 34 Pb -2.8984 3.7887 -3.7535 0
M  V30 35 Pb -1.8901 3.7679 -4.8042 0
M  V30 36 Pd -1.2181 3.1894 1.2333 0
M  V30 37 Pb -0.8718 2.4965 1.8861 0
M  V30 38 Pb -1.6279 3.6851 1.9951 0
M  V30 39 Pb -0.7316 2.7269 0.4914 0
M  V30 40 Pb -1.5598 3.9116 0.6253 0
M  V30 41 Pd 4.3242 -2.2714 -3.0628 0
M  V30 42 Pb 4.1142 -3.1781 -2.6872 0
M  V30 43 Pb 4.8605 -2.0270 -2.2546 0
M  V30 44 Pb 4.6609 -1.4471 -3.5117 0
M  V30 45 Pb 3.7102 -2.4234 -3.8406 0
M  V30 46 Ag -3.7359 -1.6579 -0.5318 0
M  V30 47 Fe -1.8124 -2.9786 -0.9516 0
M  V30 48 Ag 0.1218 -4.3476 -1.0064 0
M  V30 49 Ag 2.5492 2.9918 -6.4509 0
M  V30 50 Fe 1.1083 4.6553 -5.6232 0
M  V30 51 Ag -0.8616 5.3971 -4.5756 0
M  V30 52 Ag -1.9735 -0.9236 3.8616 0
M  V30 53 Fe -1.1146 -2.7152 2.5539 0
M  V30 54 Ag -0.3079 -4.5440 1.2644 0
M  V30 55 Ag -5.2038 0.1998 -0.4520 0
M  V30 56 Fe -4.3902 1.8079 -1.9940 0
M  V30 57 Ag -3.4860 3.4005 -3.5014 0
M  V30 58 Ag 0.5959 -1.4559 5.7820 0
M  V30 59 Fe 2.5789 -0.6076 4.8247 0
M  V30 60 Ag 3.9670 0.2683 3.1305 0
M  V30 61 Ag -0.5096 -3.4942 5.3621 0
M  V30 62 Fe 0.4942 -4.9804 3.8132 0
M  V30 63 Ag 1.3174 -5.8863 1.7841 0
M  V30 64 Ba 4.5876 -0.1332 0.7138 0
M  V30 65 Ga 4.8874 -0.9561 -0.4789 0
M  V30 66 Ba 5.2405 -1.7805 -1.6559 0
M  V30 67 Ba 3.9177 1.0228 -5.8762 0
M  V30 68 Ga 4.4640 0.0816 -4.8887 0
M  V30 69 Ba 4.9612 -0.8788 -3.8938 0
M  V30 70 Ba -2.4060 5.2747 -2.5581 0
M  V30 71 Ga -2.1173 4.8751 -1.1662 0
M  V30 72 Ba -1.8350 4.4934 0.2320 0
M  V30 73 Ba 1.9985 -0.4350 -6.1715 0
M  V30 74 Ga 2.5988 -1.4693 -5.2986 0
M  V30 75 Ba 3.2183 -2.4769 -4.4082 0
M  V30 76 Ba 2.2702 0.9734 0.2050 0
M  V30 77 Ga 0.9761 1.6708 0.0572 0
M  V30 78 Ba -0.3169 2.3803 -0.0297 0
M  V30 79 Ba -0.5437 -0.3091 4.2107 0
M  V30 80 Ga -0.6851 0.8006 3.2208 0
M  V30 81 Ba -0.5551 2.0469 2.4132 0
M  V30 82 Ba -2.3335 2.3500 4.9555 0
M  V30 83 Ga -2.1618 3.3164 3.8717 0
M  V30 84 Ba -1.8942 4.0095 2.6119 0
M  V30 85 Ba -5.4410 -0.2844 2.1648 0
M  V30 86 Ga -4.6751 0.1337 3.3539 0
M  V30 87 Ba -3.7985 0.5236 4.4744 0
M  V30 88 Ba -2.2370 -2.5002 4.0772 0
M  V30 89 Ga -3.1872 -2.2875 2.9680 0
M  V30 90 Ba -4.1784 -2.1816 1.8792 0
M  V30 91 Ba -0.3650 1.2012 4.3947 0
M  V30 92 Ga 0.8580 1.1637 3.5416 0
M  V30 93 Ba 2.1577 1.2678 2.8180 0
M  V30 94 Ba 2.3468 -5.5960 -0.7356 0
M  V30 95 Ga 3.1792 -4.7281 -1.5917 0
M  V30 96 Ba 4.0332 -3.8918 -2.4575 0
M  V30 97 Ba 0.5395 1.6964 -6.5517 0
M  V30 98 Ga -0.5417 2.5167 -5.9180 0
M  V30 99 Ba -1.7028 3.2952 -5.3804 0
M  V30 END ATOM
M  V30 BEGIN BOND
M  V30 1 1 1 2
M  V30 2 1 1 3
M  V30 3 1 1 4
M  V30 4 1 1 5
M  V30 5 1 6 7
M  V30 6 1 6 8
M  V30 7 1 6 9
M  V30 8 1 6 10
M  V30 9 1 11 12
M  V30 10 1 11 13
M  V30 11 1 11 14
M  V30 12 1 11 15
M  V30 13 1 16 17
M  V30 14 1 16 18
M  V30 15 1 16 19
M  V30 16 1 16 20
M  V30 17 1 21 22
M  V30 18 1 21 23
M  V30 19 1 21 24
M  V30 20 1 21 25
M  V30 21 1 26 27
M  V30 22 1 26 28
M  V30 23 1 26 29
M  V30 24 1 26 30
M  V30 25 1 31 32
M  V30 26 1 31 33
M  V30 27 1 31 34
M  V30 28 1 31 35
M  V30 29 1 36 37
M  V30 30 1 36 38
M  V30 31 1 36 39
M  V30 32 1 36 40
M  V30 33 1 41 42
M  V30 34 1 41 43
M  V30 35 1 41 44
M  V30 36 1 41 45
M  V30 37 1 46 47
M  V30 38 1 47 48
M  V30 39 1 49 50
M  V30 40 1 50 51
M  V30 41 1 52 53
M  V30 42 1 53 54
M  V30 43 1 55 56
M  V30 44 1 56 57
M  V30 45 1 58 59
M  V30 46 1 59 60
M  V30 47 1 61 62
M  V30 48 1 62 63
M  V30 49 1 64 65
M  V30 50 1 65 66
M  V30 51 1 67 68
M  V30 52 1 68 69
M  V30 53 1 70 71
M  V30 54 1 71 72
M  V30 55 1 73 74
M  V30 56 1 74 75
M  V30 57 1 76 77
M  V30 58 1 77 78
M  V30 59 1 79 80
M  V30 60 1 80 81
M  V30 61 1 82 83
M  V30 62 1 83 84
M  V30 63 1 85 86
M  V30 64 1 86 87
M  V30 65 1 88 89
M  V30 66 1 89 90
M  V30 67 1 91 92
M  V30 68 1 92 93
M  V30 69 1 94 95
M  V30 70 1 95 96
M  V30 71 1 97 98
M  V30 72 1 98 99
M  V30 73 1 2 67
M  V30 74 1 3 73
M  V30 75 1 4 49
M  V30 76 1 5 97
M  V30 77 1 7 88
M  V30 78 1 8 58
M  V30 79 1 9 61
M  V30 80 1 10 79
M  V30 81 1 12 46
M  V30 82 1 13 85
M  V30 83 1 14 90
M  V30 84 1 15 55
M  V30 85 1 17 52
M  V30 86 1 18 87
M  V30 87 1 19 82
M  V30 88 1 20 91
M  V30 89 1 22 76
M  V30 90 1 23 60
M  V30 91 1 24 64
M  V30 92 1 25 93
M  V30 93 1 27 54
M  V30 94 1 28 48
M  V30 95 1 29 63
M  V30 96 1 30 94
M  V30 97 1 32 51
M  V30 98 1 33 70
M  V30 99 1 34 57
M  V30 100 1 35 99
M  V30 101 1 37 81
M  V30 102 1 38 84
M  V30 103 1 39 78
M  V30 104 1 40 72
M  V30 105 1 42 96
M  V30 106 1 43 66
M  V30 107 1 44 69
M  V30 108 1 45 75
M  V30 END BOND
M  V30 END CTAB
M  END

$$$$
