
     RDKit          3D

  0  0  0  0  0  0  0  0  0  0999 V3000
M  V30 BEGIN CTAB
M  V30 COUNTS 99 108 0 0 0
M  V30 BEGIN ATOM
M  V30 1 Pd 5.1887 -0.1646 2.4977 0
M  V30 2 Pb 4.9370 -0.0613 3.4631 0
M  V30 3 Pb 5.8683 0.5674 2.5745 0
M  V30 4 Pb 4.5310 -0.9138 2.4103 0
M  V30 5 Pb 5.4252 -0.2657 1.5306 0
M  V30 6 Pd 3.4587 -3.2832 -1.6033 0
M  V30 7 Pb 3.6095 -3.3176 -2.5865 0
M  V30 8 Pb 3.2810 -3.2393 -0.6192 0
M  V30 9 Pb 4.1392 -2.5560 -1.5082 0
M  V30 10 Pb 2.7778 -4.0287 -1.7057 0
M  V30 11 Pd -3.8968 1.2805 4.2758 0
M  V30 12 Pb -3.9853 0.2879 4.2085 0
M  V30 13 Pb -4.7239 1.3836 3.7230 0
M  V30 14 Pb -3.8319 2.2672 4.3532 0
M  V30 15 Pb -3.0299 1.1729 4.8015 0
M  V30 16 Pd -1.4306 -5.5163 -4.2611 0
M  V30 17 Pb -2.0803 -5.6811 -3.5247 0
M  V30 18 Pb -2.2163 -5.3548 -4.8598 0
M  V30 19 Pb -0.7757 -5.3163 -4.9830 0
M  V30 20 Pb -0.6583 -5.6360 -3.6144 0
M  V30 21 Pd 4.7336 4.7896 1.5968 0
M  V30 22 Pb 4.6284 5.0184 2.5628 0
M  V30 23 Pb 4.8487 4.5682 0.6319 0
M  V30 24 Pb 5.6140 4.3803 1.8235 0
M  V30 25 Pb 3.7995 5.0728 1.3681 0
M  V30 26 Pd -5.9535 -1.7735 0.4936 0
M  V30 27 Pb -5.6663 -2.6702 0.1668 0
M  V30 28 Pb -6.2443 -0.8839 0.8458 0
M  V30 29 Pb -6.3081 -1.5466 -0.4157 0
M  V30 30 Pb -5.5714 -1.9942 1.3899 0
M  V30 31 Pd -4.1468 -1.1711 -4.8724 0
M  V30 32 Pb -3.3971 -1.2185 -5.5175 0
M  V30 33 Pb -3.8420 -0.2406 -4.5776 0
M  V30 34 Pb -4.9495 -1.1215 -4.2710 0
M  V30 35 Pb -4.3928 -2.0905 -5.1804 0
M  V30 36 Pd 0.2350 2.9310 -3.8166 0
M  V30 37 Pb -0.7515 2.6642 -3.8496 0
M  V30 38 Pb 0.4112 2.4212 -4.6472 0
M  V30 39 Pb 0.1195 3.4612 -2.9730 0
M  V30 40 Pb 1.2076 3.1388 -3.7525 0
M  V30 41 Pd 1.7854 2.9305 5.7198 0
M  V30 42 Pb 2.5439 3.5738 5.6445 0
M  V30 43 Pb 2.4271 2.1632 5.7968 0
M  V30 44 Pb 0.9872 2.3019 5.7976 0
M  V30 45 Pb 1.1690 3.7042 5.6490 0
M  V30 46 Ag 4.8646 4.4179 -0.0990 0
M  V30 47 Fe 3.5079 3.8476 -1.9570 0
M  V30 48 Ag 1.9307 3.2799 -3.6328 0
M  V30 49 Ag 3.5798 -3.3994 -3.3237 0
M  V30 50 Fe 1.8992 -4.2139 -4.7660 0
M  V30 51 Ag -0.1892 -5.1167 -5.3910 0
M  V30 52 Ag 3.0929 5.1896 1.1350 0
M  V30 53 Fe 1.5216 4.6024 -0.5523 0
M  V30 54 Ag 0.1345 3.8749 -2.3433 0
M  V30 55 Ag -3.6622 2.9798 4.4454 0
M  V30 56 Fe -1.6473 4.0559 5.0095 0
M  V30 57 Ag 0.6343 4.2069 5.5649 0
M  V30 58 Ag -2.5870 -5.7554 -2.9829 0
M  V30 59 Fe -4.0340 -4.6081 -1.4970 0
M  V30 60 Ag -5.4345 -3.3412 -0.0646 0
M  V30 61 Ag -2.8111 -1.1683 -5.9622 0
M  V30 62 Fe -0.9318 0.2425 -6.0021 0
M  V30 63 Ag 0.4579 1.9735 -5.2307 0
M  V30 64 Ba -5.3298 1.4538 3.2861 0
M  V30 65 Ga -5.9076 0.6273 2.2094 0
M  V30 66 Ba -6.4553 -0.2261 1.1381 0
M  V30 67 Ba -3.6546 0.4751 -4.3574 0
M  V30 68 Ga -2.5102 1.4190 -4.1319 0
M  V30 69 Ba -1.5050 2.4978 -3.8531 0
M  V30 70 Ba 4.5957 5.1695 3.2952 0
M  V30 71 Ga 3.8408 4.6329 4.4395 0
M  V30 72 Ba 3.0804 4.0900 5.5773 0
M  V30 73 Ba -2.8470 -5.2171 -5.2439 0
M  V30 74 Ga -3.6983 -4.0168 -5.3674 0
M  V30 75 Ba -4.5039 -2.7820 -5.4510 0
M  V30 76 Ba 2.3028 -4.6247 -1.7619 0
M  V30 77 Ga 1.0912 -5.1167 -2.4802 0
M  V30 78 Ba -0.1032 -5.7574 -3.1037 0
M  V30 79 Ba -6.5776 -1.3743 -1.0962 0
M  V30 80 Ga -6.0413 -1.2330 -2.4673 0
M  V30 81 Ba -5.5826 -1.0722 -3.8641 0
M  V30 82 Ba -2.3941 1.0328 5.2101 0
M  V30 83 Ga -1.0010 1.5018 5.4918 0
M  V30 84 Ba 0.4044 1.8125 5.9022 0
M  V30 85 Ba 5.5994 -0.3354 0.8038 0
M  V30 86 Ga 5.1252 -1.1759 -0.3127 0
M  V30 87 Ba 4.6533 -2.0149 -1.4313 0
M  V30 88 Ba 4.0489 -1.4852 2.3422 0
M  V30 89 Ga 3.5942 -2.3404 1.2282 0
M  V30 90 Ba 3.1372 -3.1976 0.1167 0
M  V30 91 Ba -4.0755 -0.4531 4.1504 0
M  V30 92 Ga -4.6667 -1.3189 3.1151 0
M  V30 93 Ba -5.2663 -2.1494 2.0561 0
M  V30 94 Ba 6.3839 1.1138 2.6041 0
M  V30 95 Ga 6.3526 2.5610 2.3239 0
M  V30 96 Ba 6.2243 3.9988 2.0242 0
M  V30 97 Ba 4.7431 -0.0064 4.1886 0
M  V30 98 Ga 3.8225 0.8113 5.0080 0
M  V30 99 Ba 2.9195 1.5987 5.8753 0
M  V30 END ATOM
M  V30 BEGIN BOND
M  V30 1 1 1 2
M  V30 2 1 1 3
M  V30 3 1 1 4
M  V30 4 1 1 5
M  V30 5 1 6 7
M  V30 6 1 6 8
M  V30 7 1 6 9
M  V30 8 1 6 10
M  V30 9 1 11 12
M  V30 10 1 11 13
M  V30 11 1 11 14
M  V30 12 1 11 15
M  V30 13 1 16 17
M  V30 14 1 16 18
M  V30 15 1 16 19
M  V30 16 1 16 20
M  V30 17 1 21 22
M  V30 18 1 21 23
M  V30 19 1 21 24
M  V30 20 1 21 25
M  V30 21 1 26 27
M  V30 22 1 26 28
M  V30 23 1 26 29
M  V30 24 1 26 30
M  V30 25 1 31 32
M  V30 26 1 31 33
M  V30 27 1 31 34
M  V30 28 1 31 35
M  V30 29 1 36 37
M  V30 30 1 36 38
M  V30 31 1 36 39
M  V30 32 1 36 40
M  V30 33 1 41 42
M  V30 34 1 41 43
M  V30 35 1 41 44
M  V30 36 1 41 45
M  V30 37 1 46 47
M  V30 38 1 47 48
M  V30 39 1 49 50
M  V30 40 1 50 51
M  V30 41 1 52 53
M  V30 42 1 53 54
M  V30 43 1 55 56
M  V30 44 1 56 57
M  V30 45 1 58 59
M  V30 46 1 59 60
M  V30 47 1 61 62
M  V30 48 1 62 63
M  V30 49 1 64 65
M  V30 50 1 65 66
M  V30 51 1 67 68
M  V30 52 1 68 69
M  V30 53 1 70 71
M  V30 54 1 71 72
M  V30 55 1 73 74
M  V30 56 1 74 75
M  V30 57 1 76 77
M  V30 58 1 77 78
M  V30 59 1 79 80
M  V30 60 1 80 81
M  V30 61 1 82 83
M  V30 62 1 83 84
M  V30 63 1 85 86
M  V30 64 1 86 87
M  V30 65 1 88 89
M  V30 66 1 89 90
M  V30 67 1 91 92
M  V30 68 1 92 93
M  V30 69 1 94 95
M  V30 70 1 95 96
M  V30 71 1 97 98
M  V30 72 1 98 99
M  V30 73 1 2 97
M  V30 74 1 3 94
M  V30 75 1 4 88
M  V30 76 1 5 85
M  V30 77 1 7 49
M  V30 78 1 8 90
M  V30 79 1 9 87
M  V30 80 1 10 76
M  V30 81 1 12 91
M  V30 82 1 13 64
M  V30 83 1 14 55
M  V30 84 1 15 82
M  V30 85 1 17 58
M  V30 86 1 18 73
M  V30 87 1 19 51
M  V30 88 1 20 78
M  V30 89 1 22 70
M  V30 90 1 23 46
M  V30 91 1 24 96
M  V30 92 1 25 52
M  V30 93 1 27 60
M  V30 94 1 28 66
M  V30 95 1 29 79
M  V30 96 1 30 93
M  V30 97 1 32 61
M  V30 98 1 33 67
M  V30 99 1 34 81
M  V30 100 1 35 75
M  V30 101 1 37 69
M  V30 102 1 38 63
M  V30 103 1 39 54
M  V30 104 1 40 48
M  V30 105 1 42 72
M  V30 106 1 43 99
M  V30 107 1 44 84
M  V30 108 1 45 57
M  V30 END BOND
M  V30 END CTAB
M  END

$$$$
