
     RDKit          3D

  0  0  0  0  0  0  0  0  0  0999 V3000
M  V30 BEGIN CTAB
M  V30 COUNTS 99 108 0 0 0
M  V30 BEGIN ATOM
M  V30 1 Pd 1.9684 4.4356 2.1451 0
M  V30 2 Pb 1.0135 4.6845 2.3092 0
M  V30 3 Pb 2.0770 4.1310 3.0932 0
M  V30 4 Pb 1.8894 4.7895 1.2114 0
M  V30 5 Pb 2.8937 4.1078 1.9639 0
M  V30 6 Pd 1.9747 2.9083 -3.3284 0
M  V30 7 Pb 2.3115 2.3447 -2.5780 0
M  V30 8 Pb 2.0388 2.1030 -3.9278 0
M  V30 9 Pb 1.9003 3.7161 -2.7425 0
M  V30 10 Pb 1.5885 3.3932 -4.1126 0
M  V30 11 Pd -0.1442 -2.3972 -4.5498 0
M  V30 12 Pb -0.7331 -3.1625 -4.2901 0
M  V30 13 Pb 0.4841 -1.6592 -4.8205 0
M  V30 14 Pb -0.7277 -2.1561 -5.3256 0
M  V30 15 Pb 0.4196 -2.5330 -3.7385 0
M  V30 16 Pd -4.7802 2.8726 -0.6217 0
M  V30 17 Pb -4.4360 3.5417 -1.2766 0
M  V30 18 Pb -5.1263 2.2006 0.0326 0
M  V30 19 Pb -5.1205 2.3198 -1.3847 0
M  V30 20 Pb -4.3727 3.4051 0.1208 0
M  V30 21 Pd 0.5222 -5.6555 -0.6509 0
M  V30 22 Pb 1.2465 -5.5425 0.0589 0
M  V30 23 Pb -0.1811 -5.7902 0.0457 0
M  V30 24 Pb -0.1890 -5.6948 -1.3523 0
M  V30 25 Pb 1.1999 -5.4918 -1.3578 0
M  V30 26 Pd -2.7201 2.1803 -5.3909 0
M  V30 27 Pb -3.5328 1.7643 -4.9778 0
M  V30 28 Pb -2.8926 3.0087 -4.8615 0
M  V30 29 Pb -2.5614 1.3439 -5.9247 0
M  V30 30 Pb -1.9128 2.6405 -5.7656 0
M  V30 31 Pd 1.4615 0.0049 5.8248 0
M  V30 32 Pb 0.5367 0.3494 5.9972 0
M  V30 33 Pb 2.3759 -0.3716 5.6666 0
M  V30 34 Pb 1.1356 -0.9217 6.0025 0
M  V30 35 Pb 1.7863 0.9449 5.7062 0
M  V30 36 Pd 4.7815 -2.1991 1.7278 0
M  V30 37 Pb 4.6910 -2.0597 2.7166 0
M  V30 38 Pb 4.9348 -2.3356 0.7564 0
M  V30 39 Pb 5.1803 -1.2862 1.6614 0
M  V30 40 Pb 4.2918 -3.0927 1.7627 0
M  V30 41 Pd -3.1287 -2.1978 4.8684 0
M  V30 42 Pb -3.8749 -1.7939 4.3412 0
M  V30 43 Pb -2.3528 -2.5854 5.3598 0
M  V30 44 Pb -2.9690 -1.3221 5.3239 0
M  V30 45 Pb -3.2087 -3.0593 4.3722 0
M  V30 46 Ag -5.3808 1.6937 0.5230 0
M  V30 47 Fe -4.9327 0.1048 2.2293 0
M  V30 48 Ag -4.4084 -1.4676 3.9290 0
M  V30 49 Ag 3.5570 3.7816 1.8484 0
M  V30 50 Fe 4.6177 1.6643 1.7040 0
M  V30 51 Ag 5.4014 -0.5731 1.6115 0
M  V30 52 Ag -0.7359 -5.8587 0.5442 0
M  V30 53 Fe -2.0114 -4.8519 2.2733 0
M  V30 54 Ag -3.1809 -3.6982 3.9854 0
M  V30 55 Ag 2.4789 1.7776 -2.1264 0
M  V30 56 Fe 1.8817 -0.5052 -2.2596 0
M  V30 57 Ag 0.8551 -2.4427 -3.1416 0
M  V30 58 Ag 0.2809 4.8235 2.3942 0
M  V30 59 Fe -1.9049 4.3640 1.5850 0
M  V30 60 Ag -4.0144 3.7970 0.6513 0
M  V30 61 Ag 1.7588 -5.2697 -1.7873 0
M  V30 62 Fe 3.5974 -3.8790 -1.3128 0
M  V30 63 Ag 4.9654 -2.5244 0.0419 0
M  V30 64 Ba -0.1652 0.5815 6.1335 0
M  V30 65 Ga -1.4949 -0.0167 5.9018 0
M  V30 66 Ba -2.7955 -0.6660 5.6435 0
M  V30 67 Ba -4.1749 4.0280 -1.7807 0
M  V30 68 Ga -3.5958 3.8544 -3.1224 0
M  V30 69 Ba -3.0233 3.6254 -4.4587 0
M  V30 70 Ba 2.2077 3.9409 3.8087 0
M  V30 71 Ga 2.0888 2.7689 4.6999 0
M  V30 72 Ba 2.0131 1.6607 5.6735 0
M  V30 73 Ba -1.1375 -3.7587 -4.0821 0
M  V30 74 Ga -0.9624 -4.7375 -2.9931 0
M  V30 75 Ba -0.7202 -5.6750 -1.8809 0
M  V30 76 Ba -5.3357 1.9034 -1.9726 0
M  V30 77 Ga -4.7581 1.6786 -3.3144 0
M  V30 78 Ba -4.1460 1.4828 -4.6454 0
M  V30 79 Ba 1.2790 3.6640 -4.7401 0
M  V30 80 Ga -0.0161 3.3778 -5.3905 0
M  V30 81 Ba -1.3251 3.0518 -5.9925 0
M  V30 82 Ba 3.0469 -0.6989 5.5802 0
M  V30 83 Ga 3.8378 -1.3044 4.4885 0
M  V30 84 Ba 4.6928 -1.9296 3.4580 0
M  V30 85 Ba 2.1004 1.5266 -4.4125 0
M  V30 86 Ga 1.5032 0.1963 -4.6794 0
M  V30 87 Ba 0.9872 -1.1432 -5.0492 0
M  V30 88 Ba 0.8769 -1.6059 6.1597 0
M  V30 89 Ga -0.4222 -2.2622 5.9451 0
M  V30 90 Ba -1.7448 -2.8569 5.6978 0
M  V30 91 Ba 1.8296 5.0993 0.5291 0
M  V30 92 Ga 1.8389 4.6790 -0.8862 0
M  V30 93 Ba 1.8382 4.3348 -2.3221 0
M  V30 94 Ba 1.7887 -5.4848 0.6025 0
M  V30 95 Ga 2.8417 -4.5676 1.1465 0
M  V30 96 Ba 3.9280 -3.7694 1.8015 0
M  V30 97 Ba -1.1477 -1.9009 -5.8931 0
M  V30 98 Ga -1.8179 -0.6013 -6.1167 0
M  V30 99 Ba -2.4792 0.7061 -6.3201 0
M  V30 END ATOM
M  V30 BEGIN BOND
M  V30 1 1 1 2
M  V30 2 1 1 3
M  V30 3 1 1 4
M  V30 4 1 1 5
M  V30 5 1 6 7
M  V30 6 1 6 8
M  V30 7 1 6 9
M  V30 8 1 6 10
M  V30 9 1 11 12
M  V30 10 1 11 13
M  V30 11 1 11 14
M  V30 12 1 11 15
M  V30 13 1 16 17
M  V30 14 1 16 18
M  V30 15 1 16 19
M  V30 16 1 16 20
M  V30 17 1 21 22
M  V30 18 1 21 23
M  V30 19 1 21 24
M  V30 20 1 21 25
M  V30 21 1 26 27
M  V30 22 1 26 28
M  V30 23 1 26 29
M  V30 24 1 26 30
M  V30 25 1 31 32
M  V30 26 1 31 33
M  V30 27 1 31 34
M  V30 28 1 31 35
M  V30 29 1 36 37
M  V30 30 1 36 38
M  V30 31 1 36 39
M  V30 32 1 36 40
M  V30 33 1 41 42
M  V30 34 1 41 43
M  V30 35 1 41 44
M  V30 36 1 41 45
M  V30 37 1 46 47
M  V30 38 1 47 48
M  V30 39 1 49 50
M  V30 40 1 50 51
M  V30 41 1 52 53
M  V30 42 1 53 54
M  V30 43 1 55 56
M  V30 44 1 56 57
M  V30 45 1 58 59
M  V30 46 1 59 60
M  V30 47 1 61 62
M  V30 48 1 62 63
M  V30 49 1 64 65
M  V30 50 1 65 66
M  V30 51 1 67 68
M  V30 52 1 68 69
M  V30 53 1 70 71
M  V30 54 1 71 72
M  V30 55 1 73 74
M  V30 56 1 74 75
M  V30 57 1 76 77
M  V30 58 1 77 78
M  V30 59 1 79 80
M  V30 60 1 80 81
M  V30 61 1 82 83
M  V30 62 1 83 84
M  V30 63 1 85 86
M  V30 64 1 86 87
M  V30 65 1 88 89
M  V30 66 1 89 90
M  V30 67 1 91 92
M  V30 68 1 92 93
M  V30 69 1 94 95
M  V30 70 1 95 96
M  V30 71 1 97 98
M  V30 72 1 98 99
M  V30 73 1 2 58
M  V30 74 1 3 70
M  V30 75 1 4 91
M  V30 76 1 5 49
M  V30 77 1 7 55
M  V30 78 1 8 85
M  V30 79 1 9 93
M  V30 80 1 10 79
M  V30 81 1 12 73
M  V30 82 1 13 87
M  V30 83 1 14 97
M  V30 84 1 15 57
M  V30 85 1 17 67
M  V30 86 1 18 46
M  V30 87 1 19 76
M  V30 88 1 20 60
M  V30 89 1 22 94
M  V30 90 1 23 52
M  V30 91 1 24 75
M  V30 92 1 25 61
M  V30 93 1 27 78
M  V30 94 1 28 69
M  V30 95 1 29 99
M  V30 96 1 30 81
M  V30 97 1 32 64
M  V30 98 1 33 82
M  V30 99 1 34 88
M  V30 100 1 35 72
M  V30 101 1 37 84
M  V30 102 1 38 63
M  V30 103 1 39 51
M  V30 104 1 40 96
M  V30 105 1 42 48
M  V30 106 1 43 90
M  V30 107 1 44 66
M  V30 108 1 45 54
M  V30 END BOND
M  V30 END CTAB
M  END

$$$$
