
     RDKit          3D

  0  0  0  0  0  0  0  0  0  0999 V3000
M  V30 BEGIN CTAB
M  V30 COUNTS 99 108 0 0 0
M  V30 BEGIN ATOM
M  V30 1 Pd -3.1178 -1.9187 2.0012 0
M  V30 2 Pb -3.2486 -2.3556 2.8932 0
M  V30 3 Pb -2.2290 -2.3613 1.8518 0
M  V30 4 Pb -3.9706 -1.4188 2.1249 0
M  V30 5 Pb -3.0053 -1.4010 1.1589 0
M  V30 6 Pd 4.1457 -5.5336 -4.5990 0
M  V30 7 Pb 4.7441 -4.7342 -4.5509 0
M  V30 8 Pb 4.2493 -5.7272 -3.6223 0
M  V30 9 Pb 3.8829 -5.2572 -5.5181 0
M  V30 10 Pb 3.4393 -6.2343 -4.6380 0
M  V30 11 Pd 4.1101 1.4534 3.0067 0
M  V30 12 Pb 3.7146 1.9295 3.7918 0
M  V30 13 Pb 4.4019 0.9595 2.1912 0
M  V30 14 Pb 4.2723 2.3124 2.5287 0
M  V30 15 Pb 3.8589 0.6001 3.4606 0
M  V30 16 Pd -0.4231 5.7007 -0.4773 0
M  V30 17 Pb 0.5685 5.7344 -0.3832 0
M  V30 18 Pb -0.4998 6.6201 -0.1021 0
M  V30 19 Pb -0.3554 4.7346 -0.7423 0
M  V30 20 Pb -1.4369 5.6542 -0.4895 0
M  V30 21 Pd 2.8833 1.2848 -2.6252 0
M  V30 22 Pb 3.6453 0.8549 -3.1095 0
M  V30 23 Pb 3.3399 0.9482 -1.7973 0
M  V30 24 Pb 2.0661 1.6174 -2.1433 0
M  V30 25 Pb 2.4538 1.5567 -3.4882 0
M  V30 26 Pd -5.0211 5.1846 2.9719 0
M  V30 27 Pb -4.6312 6.0792 3.1730 0
M  V30 28 Pb -5.1296 4.9426 3.9358 0
M  V30 29 Pb -5.4128 4.2899 2.7688 0
M  V30 30 Pb -4.7875 5.3340 1.9970 0
M  V30 31 Pd -1.7820 -0.1213 6.6534 0
M  V30 32 Pb -2.3798 -0.8992 6.4533 0
M  V30 33 Pb -2.5486 0.5032 6.8174 0
M  V30 34 Pb -0.9890 -0.6891 6.4379 0
M  V30 35 Pb -1.1414 0.6376 6.7705 0
M  V30 36 Pd -0.9313 -1.0240 -5.2649 0
M  V30 37 Pb -0.4272 -0.2007 -5.5266 0
M  V30 38 Pb -1.4042 -1.8422 -4.9216 0
M  V30 39 Pb -0.4501 -1.5416 -5.9694 0
M  V30 40 Pb -1.3742 -0.5209 -4.5324 0
M  V30 41 Pd 0.2130 -5.0456 -1.7226 0
M  V30 42 Pb 1.1087 -5.3473 -1.3819 0
M  V30 43 Pb 0.1075 -4.4726 -0.9017 0
M  V30 44 Pb -0.6286 -4.7085 -2.1548 0
M  V30 45 Pb 0.3216 -5.6944 -2.4759 0
M  V30 46 Ag 5.0968 -4.0724 -4.5403 0
M  V30 47 Fe 4.7840 -1.7766 -4.0183 0
M  V30 48 Ag 4.1957 0.4423 -3.4086 0
M  V30 49 Ag -0.6842 7.2140 0.3030 0
M  V30 50 Fe -2.4040 7.4386 1.9024 0
M  V30 51 Ag -4.2549 6.7199 3.1774 0
M  V30 52 Ag 3.5791 0.0083 3.8233 0
M  V30 53 Fe 1.6722 -0.6777 5.0577 0
M  V30 54 Ag -0.3568 -1.0350 6.2352 0
M  V30 55 Ag 3.3343 2.2114 4.3729 0
M  V30 56 Fe 1.3899 1.8249 5.6801 0
M  V30 57 Ag -0.6060 1.1625 6.7831 0
M  V30 58 Ag 4.3081 2.9418 2.1300 0
M  V30 59 Fe 2.9422 4.4333 0.8953 0
M  V30 60 Ag 1.3012 5.7070 -0.2449 0
M  V30 61 Ag 3.5526 -4.9767 -6.1233 0
M  V30 62 Fe 1.7718 -3.4691 -6.5325 0
M  V30 63 Ag -0.0296 -1.9324 -6.4481 0
M  V30 64 Ag -4.5664 -0.9726 2.1758 0
M  V30 65 Fe -5.2312 1.2904 2.4182 0
M  V30 66 Ag -5.6906 3.6031 2.6689 0
M  V30 67 Ag -2.9558 -0.9640 0.5568 0
M  V30 68 Fe -2.3388 -0.5453 -1.6911 0
M  V30 69 Ag -1.6931 -0.2001 -3.9433 0
M  V30 70 Ag -5.1565 4.6335 4.6189 0
M  V30 71 Fe -4.1947 2.8610 5.8768 0
M  V30 72 Ag -3.0775 1.0314 6.9037 0
M  V30 73 Ba -3.3845 -2.6198 3.5841 0
M  V30 74 Ga -3.0924 -2.0908 4.9330 0
M  V30 75 Ba -2.7691 -1.5102 6.2532 0
M  V30 76 Ba 2.1226 1.7325 -4.1396 0
M  V30 77 Ga 1.0487 1.0981 -4.9297 0
M  V30 78 Ba -0.0297 0.4183 -5.6748 0
M  V30 79 Ba -0.3287 3.9912 -0.8667 0
M  V30 80 Ga 0.5931 2.9467 -1.3690 0
M  V30 81 Ba 1.3985 1.7958 -1.8380 0
M  V30 82 Ba 2.8378 -6.6752 -4.6421 0
M  V30 83 Ga 1.6081 -6.5038 -3.8520 0
M  V30 84 Ba 0.4410 -6.2148 -3.0028 0
M  V30 85 Ba 4.2121 -5.8519 -2.8817 0
M  V30 86 Ga 3.0420 -5.7243 -1.9838 0
M  V30 87 Ba 1.8054 -5.5617 -1.1857 0
M  V30 88 Ba -2.2016 5.6428 -0.5047 0
M  V30 89 Ga -3.3669 5.5290 0.4220 0
M  V30 90 Ba -4.5963 5.4240 1.2631 0
M  V30 91 Ba -1.7804 -2.4137 -4.6003 0
M  V30 92 Ga -1.4954 -3.4453 -3.5743 0
M  V30 93 Ba -1.2312 -4.4846 -2.5505 0
M  V30 94 Ba -1.5354 -2.6336 1.7358 0
M  V30 95 Ga -0.7766 -3.3793 0.7043 0
M  V30 96 Ba 0.1033 -4.1106 -0.2372 0
M  V30 97 Ba 4.5790 0.5872 1.5679 0
M  V30 98 Ga 4.1385 0.6483 0.1596 0
M  V30 99 Ba 3.7685 0.6213 -1.2694 0
M  V30 END ATOM
M  V30 BEGIN BOND
M  V30 1 1 1 2
M  V30 2 1 1 3
M  V30 3 1 1 4
M  V30 4 1 1 5
M  V30 5 1 6 7
M  V30 6 1 6 8
M  V30 7 1 6 9
M  V30 8 1 6 10
M  V30 9 1 11 12
M  V30 10 1 11 13
M  V30 11 1 11 14
M  V30 12 1 11 15
M  V30 13 1 16 17
M  V30 14 1 16 18
M  V30 15 1 16 19
M  V30 16 1 16 20
M  V30 17 1 21 22
M  V30 18 1 21 23
M  V30 19 1 21 24
M  V30 20 1 21 25
M  V30 21 1 26 27
M  V30 22 1 26 28
M  V30 23 1 26 29
M  V30 24 1 26 30
M  V30 25 1 31 32
M  V30 26 1 31 33
M  V30 27 1 31 34
M  V30 28 1 31 35
M  V30 29 1 36 37
M  V30 30 1 36 38
M  V30 31 1 36 39
M  V30 32 1 36 40
M  V30 33 1 41 42
M  V30 34 1 41 43
M  V30 35 1 41 44
M  V30 36 1 41 45
M  V30 37 1 46 47
M  V30 38 1 47 48
M  V30 39 1 49 50
M  V30 40 1 50 51
M  V30 41 1 52 53
M  V30 42 1 53 54
M  V30 43 1 55 56
M  V30 44 1 56 57
M  V30 45 1 58 59
M  V30 46 1 59 60
M  V30 47 1 61 62
M  V30 48 1 62 63
M  V30 49 1 64 65
M  V30 50 1 65 66
M  V30 51 1 67 68
M  V30 52 1 68 69
M  V30 53 1 70 71
M  V30 54 1 71 72
M  V30 55 1 73 74
M  V30 56 1 74 75
M  V30 57 1 76 77
M  V30 58 1 77 78
M  V30 59 1 79 80
M  V30 60 1 80 81
M  V30 61 1 82 83
M  V30 62 1 83 84
M  V30 63 1 85 86
M  V30 64 1 86 87
M  V30 65 1 88 89
M  V30 66 1 89 90
M  V30 67 1 91 92
M  V30 68 1 92 93
M  V30 69 1 94 95
M  V30 70 1 95 96
M  V30 71 1 97 98
M  V30 72 1 98 99
M  V30 73 1 2 73
M  V30 74 1 3 94
M  V30 75 1 4 64
M  V30 76 1 5 67
M  V30 77 1 7 46
M  V30 78 1 8 85
M  V30 79 1 9 61
M  V30 80 1 10 82
M  V30 81 1 12 55
M  V30 82 1 13 97
M  V30 83 1 14 58
M  V30 84 1 15 52
M  V30 85 1 17 60
M  V30 86 1 18 49
M  V30 87 1 19 79
M  V30 88 1 20 88
M  V30 89 1 22 48
M  V30 90 1 23 99
M  V30 91 1 24 81
M  V30 92 1 25 76
M  V30 93 1 27 51
M  V30 94 1 28 70
M  V30 95 1 29 66
M  V30 96 1 30 90
M  V30 97 1 32 75
M  V30 98 1 33 72
M  V30 99 1 34 54
M  V30 100 1 35 57
M  V30 101 1 37 78
M  V30 102 1 38 91
M  V30 103 1 39 63
M  V30 104 1 40 69
M  V30 105 1 42 87
M  V30 106 1 43 96
M  V30 107 1 44 93
M  V30 108 1 45 84
M  V30 END BOND
M  V30 END CTAB
M  END

$$$$
