
     RDKit          3D

  0  0  0  0  0  0  0  0  0  0999 V3000
M  V30 BEGIN CTAB
M  V30 COUNTS 99 108 0 0 0
M  V30 BEGIN ATOM
M  V30 1 Pd -3.5795 -0.4034 -2.2505 0
M  V30 2 Pb -3.0804 -0.8203 -3.0162 0
M  V30 3 Pb -4.1670 -1.2135 -2.1980 0
M  V30 4 Pb -3.0991 0.4655 -2.3705 0
M  V30 5 Pb -4.0240 -0.0189 -1.4406 0
M  V30 6 Pd -0.8386 6.8106 -0.1619 0
M  V30 7 Pb -0.2922 7.5031 0.3017 0
M  V30 8 Pb -0.9025 6.3135 0.7015 0
M  V30 9 Pb -1.2178 6.0443 -0.6827 0
M  V30 10 Pb -0.6030 7.2392 -1.0277 0
M  V30 11 Pd 3.3144 5.2263 1.4118 0
M  V30 12 Pb 3.5247 4.2543 1.4989 0
M  V30 13 Pb 2.4763 5.0951 1.9470 0
M  V30 14 Pb 4.1103 5.3353 0.8098 0
M  V30 15 Pb 3.0963 6.2029 1.3749 0
M  V30 16 Pd 1.7047 -1.0853 -3.9391 0
M  V30 17 Pb 2.6125 -0.7434 -3.6845 0
M  V30 18 Pb 1.9998 -1.9990 -3.6492 0
M  V30 19 Pb 1.4803 -0.1882 -4.3158 0
M  V30 20 Pb 0.7876 -1.4056 -4.1943 0
M  V30 21 Pd 1.6645 -1.4573 4.9269 0
M  V30 22 Pb 1.1952 -0.6289 5.2338 0
M  V30 23 Pb 2.0880 -2.2872 4.5654 0
M  V30 24 Pb 2.2331 -0.9249 4.3013 0
M  V30 25 Pb 1.0710 -1.9859 5.5346 0
M  V30 26 Pd 4.0056 3.7707 -3.6185 0
M  V30 27 Pb 3.2903 3.3679 -4.1879 0
M  V30 28 Pb 4.3604 2.8552 -3.4252 0
M  V30 29 Pb 4.6525 4.1901 -2.9759 0
M  V30 30 Pb 3.6090 4.6644 -3.8130 0
M  V30 31 Pd -4.0605 -5.7658 -0.4958 0
M  V30 32 Pb -3.4827 -6.4092 0.0009 0
M  V30 33 Pb -4.5186 -5.5226 0.3576 0
M  V30 34 Pb -3.5561 -5.9832 -1.3322 0
M  V30 35 Pb -4.6097 -5.0925 -0.9872 0
M  V30 36 Pd -3.3008 -0.9823 5.1586 0
M  V30 37 Pb -3.8980 -1.7363 4.8906 0
M  V30 38 Pb -2.7804 -1.5877 5.7603 0
M  V30 39 Pb -3.7704 -0.4094 4.4869 0
M  V30 40 Pb -2.6628 -0.2473 5.3888 0
M  V30 41 Pd 0.9765 -6.0746 -0.9154 0
M  V30 42 Pb 1.5756 -5.5525 -1.5229 0
M  V30 43 Pb 0.3260 -6.2191 -1.6614 0
M  V30 44 Pb 0.3821 -6.6093 -0.3171 0
M  V30 45 Pb 1.5820 -5.9027 -0.1387 0
M  V30 46 Ag 3.6787 3.5281 1.5939 0
M  V30 47 Fe 3.1772 1.4867 2.6962 0
M  V30 48 Ag 2.6527 -0.5401 3.8144 0
M  V30 49 Ag -4.3089 0.2587 -0.8039 0
M  V30 50 Fe -4.2734 0.1810 1.5700 0
M  V30 51 Ag -4.1059 -0.0360 3.9296 0
M  V30 52 Ag -0.2809 7.4499 -1.6634 0
M  V30 53 Fe 1.4744 6.5795 -2.9910 0
M  V30 54 Ag 3.2342 5.3000 -3.9239 0
M  V30 55 Ag -4.8188 -5.3150 1.0112 0
M  V30 56 Fe -4.6490 -3.8447 2.8662 0
M  V30 57 Ag -4.3225 -2.2974 4.6356 0
M  V30 58 Ag 2.3878 -2.8883 4.2329 0
M  V30 59 Fe 2.2575 -4.3683 2.3807 0
M  V30 60 Ag 1.9889 -5.7580 0.4742 0
M  V30 61 Ag -2.8184 1.1512 -2.4892 0
M  V30 62 Fe -2.1171 3.2924 -1.7338 0
M  V30 63 Ag -1.3849 5.4747 -1.1440 0
M  V30 64 Ba -3.0102 -6.8651 0.3574 0
M  V30 65 Ga -1.5453 -6.9735 0.2717 0
M  V30 66 Ba -0.0825 -7.0057 0.1156 0
M  V30 67 Ba 3.2949 -0.4920 -3.4894 0
M  V30 68 Ga 3.9488 0.8294 -3.3894 0
M  V30 69 Ba 4.5954 2.1546 -3.2921 0
M  V30 70 Ba -4.6642 -1.7780 -2.2062 0
M  V30 71 Ga -4.8055 -3.1781 -1.7631 0
M  V30 72 Ba -5.0157 -4.5787 -1.3491 0
M  V30 73 Ba 2.3144 -2.6633 -3.4849 0
M  V30 74 Ga 2.1120 -3.9033 -2.7086 0
M  V30 75 Ba 2.0415 -5.1895 -1.9855 0
M  V30 76 Ba 1.3526 0.4727 -4.6439 0
M  V30 77 Ga 2.0280 1.7822 -4.6128 0
M  V30 78 Ba 2.7124 3.0867 -4.5730 0
M  V30 79 Ba -0.8163 5.9392 1.3442 0
M  V30 80 Ga 0.4611 5.4419 1.8925 0
M  V30 81 Ba 1.8148 5.0124 2.2972 0
M  V30 82 Ba 0.2262 7.9444 0.6084 0
M  V30 83 Ga 1.5729 7.5169 1.0264 0
M  V30 84 Ba 2.8696 6.9191 1.3911 0
M  V30 85 Ba -2.7084 -1.1718 -3.5708 0
M  V30 86 Ga -1.2977 -1.3781 -3.9723 0
M  V30 87 Ba 0.0963 -1.6134 -4.4139 0
M  V30 88 Ba -3.1361 -6.1408 -1.9341 0
M  V30 89 Ga -1.6738 -6.2403 -2.1058 0
M  V30 90 Ba -0.2023 -6.3187 -2.1849 0
M  V30 91 Ba 0.5881 -2.3437 5.9840 0
M  V30 92 Ga -0.8765 -2.2285 6.1176 0
M  V30 93 Ba -2.3379 -2.0351 6.1678 0
M  V30 94 Ba 0.7934 -0.0315 5.4454 0
M  V30 95 Ga -0.6664 0.1687 5.5197 0
M  V30 96 Ba -2.1384 0.2619 5.5573 0
M  V30 97 Ba 4.6944 5.3819 0.3351 0
M  V30 98 Ga 4.9128 4.9578 -1.0668 0
M  V30 99 Ba 5.1014 4.5227 -2.4696 0
M  V30 END ATOM
M  V30 BEGIN BOND
M  V30 1 1 1 2
M  V30 2 1 1 3
M  V30 3 1 1 4
M  V30 4 1 1 5
M  V30 5 1 6 7
M  V30 6 1 6 8
M  V30 7 1 6 9
M  V30 8 1 6 10
M  V30 9 1 11 12
M  V30 10 1 11 13
M  V30 11 1 11 14
M  V30 12 1 11 15
M  V30 13 1 16 17
M  V30 14 1 16 18
M  V30 15 1 16 19
M  V30 16 1 16 20
M  V30 17 1 21 22
M  V30 18 1 21 23
M  V30 19 1 21 24
M  V30 20 1 21 25
M  V30 21 1 26 27
M  V30 22 1 26 28
M  V30 23 1 26 29
M  V30 24 1 26 30
M  V30 25 1 31 32
M  V30 26 1 31 33
M  V30 27 1 31 34
M  V30 28 1 31 35
M  V30 29 1 36 37
M  V30 30 1 36 38
M  V30 31 1 36 39
M  V30 32 1 36 40
M  V30 33 1 41 42
M  V30 34 1 41 43
M  V30 35 1 41 44
M  V30 36 1 41 45
M  V30 37 1 46 47
M  V30 38 1 47 48
M  V30 39 1 49 50
M  V30 40 1 50 51
M  V30 41 1 52 53
M  V30 42 1 53 54
M  V30 43 1 55 56
M  V30 44 1 56 57
M  V30 45 1 58 59
M  V30 46 1 59 60
M  V30 47 1 61 62
M  V30 48 1 62 63
M  V30 49 1 64 65
M  V30 50 1 65 66
M  V30 51 1 67 68
M  V30 52 1 68 69
M  V30 53 1 70 71
M  V30 54 1 71 72
M  V30 55 1 73 74
M  V30 56 1 74 75
M  V30 57 1 76 77
M  V30 58 1 77 78
M  V30 59 1 79 80
M  V30 60 1 80 81
M  V30 61 1 82 83
M  V30 62 1 83 84
M  V30 63 1 85 86
M  V30 64 1 86 87
M  V30 65 1 88 89
M  V30 66 1 89 90
M  V30 67 1 91 92
M  V30 68 1 92 93
M  V30 69 1 94 95
M  V30 70 1 95 96
M  V30 71 1 97 98
M  V30 72 1 98 99
M  V30 73 1 2 85
M  V30 74 1 3 70
M  V30 75 1 4 61
M  V30 76 1 5 49
M  V30 77 1 7 82
M  V30 78 1 8 79
M  V30 79 1 9 63
M  V30 80 1 10 52
M  V30 81 1 12 46
M  V30 82 1 13 81
M  V30 83 1 14 97
M  V30 84 1 15 84
M  V30 85 1 17 67
M  V30 86 1 18 73
M  V30 87 1 19 76
M  V30 88 1 20 87
M  V30 89 1 22 94
M  V30 90 1 23 58
M  V30 91 1 24 48
M  V30 92 1 25 91
M  V30 93 1 27 78
M  V30 94 1 28 69
M  V30 95 1 29 99
M  V30 96 1 30 54
M  V30 97 1 32 64
M  V30 98 1 33 55
M  V30 99 1 34 88
M  V30 100 1 35 72
M  V30 101 1 37 57
M  V30 102 1 38 93
M  V30 103 1 39 51
M  V30 104 1 40 96
M  V30 105 1 42 75
M  V30 106 1 43 90
M  V30 107 1 44 66
M  V30 108 1 45 60
M  V30 END BOND
M  V30 END CTAB
M  END

$$$$
