
     RDKit          3D

  0  0  0  0  0  0  0  0  0  0999 V3000
M  V30 BEGIN CTAB
M  V30 COUNTS 99 108 0 0 0
M  V30 BEGIN ATOM
M  V30 1 Pd -2.7210 -3.3496 0.6686 0
M  V30 2 Pb -3.3300 -3.6992 1.3809 0
M  V30 3 Pb -2.1453 -2.9501 -0.0443 0
M  V30 4 Pb -3.0769 -4.0007 -0.0044 0
M  V30 5 Pb -2.3449 -2.7018 1.3297 0
M  V30 6 Pd 7.7521 0.2143 -1.7234 0
M  V30 7 Pb 7.9607 1.1528 -1.4547 0
M  V30 8 Pb 7.3797 -0.7128 -1.8793 0
M  V30 9 Pb 8.0909 -0.1148 -0.8489 0
M  V30 10 Pb 7.3471 0.5128 -2.5825 0
M  V30 11 Pd -3.3235 3.4347 2.7620 0
M  V30 12 Pb -4.3025 3.3851 2.5601 0
M  V30 13 Pb -2.3423 3.4518 2.9572 0
M  V30 14 Pb -3.1732 4.0598 1.9957 0
M  V30 15 Pb -3.4717 2.7998 3.5214 0
M  V30 16 Pd -1.1185 3.2881 -4.2102 0
M  V30 17 Pb -1.3593 4.0557 -3.6201 0
M  V30 18 Pb -2.0830 3.1386 -4.4136 0
M  V30 19 Pb -0.1530 3.4267 -3.9883 0
M  V30 20 Pb -0.9424 2.4228 -4.6842 0
M  V30 21 Pd 4.5444 3.2867 1.1462 0
M  V30 22 Pb 5.4793 3.3359 0.7773 0
M  V30 23 Pb 3.6293 3.3007 1.5545 0
M  V30 24 Pb 4.1958 3.4770 0.2272 0
M  V30 25 Pb 4.8593 3.0548 2.0679 0
M  V30 26 Pd -5.0933 -2.5607 -3.8999 0
M  V30 27 Pb -5.3601 -1.6529 -4.2115 0
M  V30 28 Pb -5.9145 -2.6157 -3.3356 0
M  V30 29 Pb -4.7907 -3.4334 -3.5175 0
M  V30 30 Pb -4.2291 -2.4149 -4.3882 0
M  V30 31 Pd -6.4068 -0.7065 3.0071 0
M  V30 32 Pb -6.1175 -1.6434 3.2081 0
M  V30 33 Pb -6.9468 -1.0591 2.2442 0
M  V30 34 Pb -5.8232 -0.3464 3.7344 0
M  V30 35 Pb -6.6549 0.2337 2.7700 0
M  V30 36 Pd 3.7260 -1.1275 3.6952 0
M  V30 37 Pb 4.0318 -0.2468 4.0622 0
M  V30 38 Pb 3.4497 -1.9802 3.2428 0
M  V30 39 Pb 4.6885 -1.3524 3.5852 0
M  V30 40 Pb 2.7600 -0.8906 3.7759 0
M  V30 41 Pd 2.6994 -2.5457 -1.5061 0
M  V30 42 Pb 3.7039 -2.6753 -1.5682 0
M  V30 43 Pb 1.7100 -2.3917 -1.5131 0
M  V30 44 Pb 2.6695 -2.9948 -0.6070 0
M  V30 45 Pb 2.7433 -2.0718 -2.3811 0
M  V30 46 Ag 0.5617 3.5543 -3.7981 0
M  V30 47 Fe 2.2572 3.5733 -2.1338 0
M  V30 48 Ag 3.9588 3.5961 -0.4757 0
M  V30 49 Ag -2.7899 2.9496 -4.5605 0
M  V30 50 Fe -4.2768 1.1046 -4.5497 0
M  V30 51 Ag -5.4635 -0.9415 -4.4092 0
M  V30 52 Ag 6.9005 0.6075 -3.1664 0
M  V30 53 Fe 4.7725 -0.3384 -3.5343 0
M  V30 54 Ag 2.9009 -1.6619 -2.9802 0
M  V30 55 Ag -0.9224 1.7265 -4.9701 0
M  V30 56 Fe -2.1484 -0.3127 -4.9464 0
M  V30 57 Ag -3.5897 -2.1922 -4.7192 0
M  V30 58 Ag -3.0352 4.5073 1.4097 0
M  V30 59 Fe -2.3164 4.6543 -0.8479 0
M  V30 60 Ag -1.5742 4.5479 -3.0999 0
M  V30 61 Ag 8.2273 -0.4016 -0.1773 0
M  V30 62 Fe 7.0156 -1.0090 1.7611 0
M  V30 63 Ag 5.4138 -1.4426 3.4468 0
M  V30 64 Ag -2.0384 -2.2259 1.8202 0
M  V30 65 Fe -0.0546 -1.4336 2.8538 0
M  V30 66 Ag 2.0229 -0.7649 3.7853 0
M  V30 67 Ag -6.4808 -2.6044 -2.8472 0
M  V30 68 Fe -7.0230 -2.0098 -0.6151 0
M  V30 69 Ag -7.2973 -1.3382 1.6442 0
M  V30 70 Ag -1.6076 3.4533 3.1105 0
M  V30 71 Fe 0.6712 3.3870 2.4383 0
M  V30 72 Ag 2.9995 3.3308 1.9652 0
M  V30 73 Ba 8.0383 1.8462 -1.1821 0
M  V30 74 Ga 7.1149 2.6459 -0.3477 0
M  V30 75 Ba 6.1726 3.4222 0.4877 0
M  V30 76 Ba -3.7962 -3.9065 1.9310 0
M  V30 77 Ga -4.8503 -3.1620 2.6472 0
M  V30 78 Ba -5.8865 -2.3500 3.3146 0
M  V30 79 Ba 5.0020 2.8620 2.7804 0
M  V30 80 Ga 4.6817 1.6469 3.5594 0
M  V30 81 Ba 4.3349 0.4054 4.2834 0
M  V30 82 Ba -3.6034 2.3141 4.0787 0
M  V30 83 Ga -4.4752 1.1296 4.1956 0
M  V30 84 Ba -5.3672 -0.0445 4.2472 0
M  V30 85 Ba 7.0798 -1.4113 -1.9312 0
M  V30 86 Ga 5.7415 -2.0576 -1.7977 0
M  V30 87 Ba 4.4505 -2.7965 -1.6809 0
M  V30 88 Ba -5.0374 3.3092 2.4262 0
M  V30 89 Ga -5.9457 2.1475 2.4982 0
M  V30 90 Ba -6.8013 0.9477 2.5890 0
M  V30 91 Ba -3.3162 -4.4765 -0.5352 0
M  V30 92 Ga -3.9469 -4.2987 -1.8582 0
M  V30 93 Ba -4.5774 -4.0640 -3.1723 0
M  V30 94 Ba 3.2316 -2.6050 2.8810 0
M  V30 95 Ga 2.9476 -2.9592 1.4706 0
M  V30 96 Ba 2.6582 -3.3356 0.0671 0
M  V30 97 Ba -1.7546 -2.6188 -0.5914 0
M  V30 98 Ga -0.3580 -2.4689 -1.0440 0
M  V30 99 Ba 0.9826 -2.2307 -1.6126 0
M  V30 END ATOM
M  V30 BEGIN BOND
M  V30 1 1 1 2
M  V30 2 1 1 3
M  V30 3 1 1 4
M  V30 4 1 1 5
M  V30 5 1 6 7
M  V30 6 1 6 8
M  V30 7 1 6 9
M  V30 8 1 6 10
M  V30 9 1 11 12
M  V30 10 1 11 13
M  V30 11 1 11 14
M  V30 12 1 11 15
M  V30 13 1 16 17
M  V30 14 1 16 18
M  V30 15 1 16 19
M  V30 16 1 16 20
M  V30 17 1 21 22
M  V30 18 1 21 23
M  V30 19 1 21 24
M  V30 20 1 21 25
M  V30 21 1 26 27
M  V30 22 1 26 28
M  V30 23 1 26 29
M  V30 24 1 26 30
M  V30 25 1 31 32
M  V30 26 1 31 33
M  V30 27 1 31 34
M  V30 28 1 31 35
M  V30 29 1 36 37
M  V30 30 1 36 38
M  V30 31 1 36 39
M  V30 32 1 36 40
M  V30 33 1 41 42
M  V30 34 1 41 43
M  V30 35 1 41 44
M  V30 36 1 41 45
M  V30 37 1 46 47
M  V30 38 1 47 48
M  V30 39 1 49 50
M  V30 40 1 50 51
M  V30 41 1 52 53
M  V30 42 1 53 54
M  V30 43 1 55 56
M  V30 44 1 56 57
M  V30 45 1 58 59
M  V30 46 1 59 60
M  V30 47 1 61 62
M  V30 48 1 62 63
M  V30 49 1 64 65
M  V30 50 1 65 66
M  V30 51 1 67 68
M  V30 52 1 68 69
M  V30 53 1 70 71
M  V30 54 1 71 72
M  V30 55 1 73 74
M  V30 56 1 74 75
M  V30 57 1 76 77
M  V30 58 1 77 78
M  V30 59 1 79 80
M  V30 60 1 80 81
M  V30 61 1 82 83
M  V30 62 1 83 84
M  V30 63 1 85 86
M  V30 64 1 86 87
M  V30 65 1 88 89
M  V30 66 1 89 90
M  V30 67 1 91 92
M  V30 68 1 92 93
M  V30 69 1 94 95
M  V30 70 1 95 96
M  V30 71 1 97 98
M  V30 72 1 98 99
M  V30 73 1 2 76
M  V30 74 1 3 97
M  V30 75 1 4 91
M  V30 76 1 5 64
M  V30 77 1 7 73
M  V30 78 1 8 85
M  V30 79 1 9 61
M  V30 80 1 10 52
M  V30 81 1 12 88
M  V30 82 1 13 70
M  V30 83 1 14 58
M  V30 84 1 15 82
M  V30 85 1 17 60
M  V30 86 1 18 49
M  V30 87 1 19 46
M  V30 88 1 20 55
M  V30 89 1 22 75
M  V30 90 1 23 72
M  V30 91 1 24 48
M  V30 92 1 25 79
M  V30 93 1 27 51
M  V30 94 1 28 67
M  V30 95 1 29 93
M  V30 96 1 30 57
M  V30 97 1 32 78
M  V30 98 1 33 69
M  V30 99 1 34 84
M  V30 100 1 35 90
M  V30 101 1 37 81
M  V30 102 1 38 94
M  V30 103 1 39 63
M  V30 104 1 40 66
M  V30 105 1 42 87
M  V30 106 1 43 99
M  V30 107 1 44 96
M  V30 108 1 45 54
M  V30 END BOND
M  V30 END CTAB
M  END

$$$$
