
     RDKit          3D

  0  0  0  0  0  0  0  0  0  0999 V3000
M  V30 BEGIN CTAB
M  V30 COUNTS 99 108 0 0 0
M  V30 BEGIN ATOM
M  V30 1 Pd 3.3705 -3.8487 0.0307 0
M  V30 2 Pb 2.6631 -3.9266 -0.6762 0
M  V30 3 Pb 4.1336 -3.8742 0.6862 0
M  V30 4 Pb 3.8942 -3.1587 -0.4763 0
M  V30 5 Pb 2.8498 -4.5534 0.5195 0
M  V30 6 Pd 0.8260 2.3869 5.2234 0
M  V30 7 Pb 0.4669 2.7057 4.3470 0
M  V30 8 Pb 1.2285 2.0192 6.0568 0
M  V30 9 Pb -0.0446 1.9681 5.4732 0
M  V30 10 Pb 1.7598 2.5939 4.9248 0
M  V30 11 Pd -6.4126 1.7100 -5.2229 0
M  V30 12 Pb -6.5649 0.7217 -5.2283 0
M  V30 13 Pb -6.8218 1.7908 -4.3153 0
M  V30 14 Pb -6.0965 2.6566 -5.1675 0
M  V30 15 Pb -5.9229 1.5879 -6.0838 0
M  V30 16 Pd -1.0490 5.4601 -1.4921 0
M  V30 17 Pb -1.7309 5.4951 -2.2260 0
M  V30 18 Pb -0.3921 5.4347 -0.7479 0
M  V30 19 Pb -1.7390 5.8132 -0.8608 0
M  V30 20 Pb -0.3522 5.0398 -2.1061 0
M  V30 21 Pd -3.6736 2.5406 1.4315 0
M  V30 22 Pb -2.7166 2.7106 1.6703 0
M  V30 23 Pb -4.6040 2.4136 1.0917 0
M  V30 24 Pb -3.8055 3.5308 1.4360 0
M  V30 25 Pb -3.5260 1.5522 1.3554 0
M  V30 26 Pd 3.3551 1.3656 -2.4591 0
M  V30 27 Pb 3.4923 1.8026 -1.5782 0
M  V30 28 Pb 3.2309 0.9209 -3.3438 0
M  V30 29 Pb 3.9477 0.6023 -2.1942 0
M  V30 30 Pb 2.7475 2.1359 -2.7434 0
M  V30 31 Pd -1.3577 -2.8766 -6.2947 0
M  V30 32 Pb -1.0180 -3.4323 -5.5354 0
M  V30 33 Pb -0.4321 -2.5429 -6.4501 0
M  V30 34 Pb -1.7148 -2.2473 -6.9820 0
M  V30 35 Pb -2.3097 -3.1040 -6.0858 0
M  V30 36 Pd -0.8054 -4.2714 3.6691 0
M  V30 37 Pb -1.3511 -3.8500 2.9462 0
M  V30 38 Pb -0.2083 -4.6470 4.3754 0
M  V30 39 Pb -1.2224 -3.6064 4.2903 0
M  V30 40 Pb -0.3294 -4.8829 3.0346 0
M  V30 41 Pd 5.6356 -2.4174 5.1645 0
M  V30 42 Pb 5.3049 -1.9766 5.9942 0
M  V30 43 Pb 5.8895 -2.8549 4.3003 0
M  V30 44 Pb 5.2597 -3.2765 5.5010 0
M  V30 45 Pb 5.8251 -1.4980 4.8146 0
M  V30 46 Ag 2.1314 -4.1105 -1.1778 0
M  V30 47 Fe 0.7151 -3.8953 -3.0753 0
M  V30 48 Ag -0.7581 -3.8074 -4.9395 0
M  V30 49 Ag -3.4393 0.8125 1.2488 0
M  V30 50 Fe -2.6033 -1.3330 1.8353 0
M  V30 51 Ag -1.7555 -3.4675 2.4445 0
M  V30 52 Ag 0.1491 5.3242 -0.2555 0
M  V30 53 Fe 2.0060 3.8762 -0.1968 0
M  V30 54 Ag 3.4813 2.2055 -0.9582 0
M  V30 55 Ag -5.4980 1.4082 -6.6719 0
M  V30 56 Fe -3.7574 -0.0939 -7.2523 0
M  V30 57 Ag -2.0530 -1.7351 -7.4085 0
M  V30 58 Ag 2.4825 2.5885 4.7147 0
M  V30 59 Fe 4.2955 1.0547 4.5785 0
M  V30 60 Ag 5.8169 -0.7735 4.6113 0
M  V30 61 Ag 1.6083 1.6861 6.6041 0
M  V30 62 Fe 3.3061 0.0522 6.8346 0
M  V30 63 Ag 4.9773 -1.6000 6.5475 0
M  V30 64 Ag -6.5325 -0.0274 -5.2457 0
M  V30 65 Fe -4.9259 -1.7474 -5.5674 0
M  V30 66 Ag -3.0446 -3.1495 -5.9393 0
M  V30 67 Ag -5.7669 3.3259 -5.0908 0
M  V30 68 Fe -4.0369 4.4888 -3.9492 0
M  V30 69 Ag -2.2760 5.5347 -2.7433 0
M  V30 70 Ag -0.6118 1.5084 5.6375 0
M  V30 71 Fe -1.2249 -0.7544 5.2599 0
M  V30 72 Ag -1.5177 -3.0399 4.6851 0
M  V30 73 Ag 0.3254 -4.9150 4.8257 0
M  V30 74 Fe 2.5924 -4.5611 5.4228 0
M  V30 75 Ag 4.8297 -3.8408 5.7315 0
M  V30 76 Ag 3.1410 0.5557 -3.9904 0
M  V30 77 Fe 1.7640 -0.8406 -5.3235 0
M  V30 78 Ag 0.2427 -2.2289 -6.4986 0
M  V30 79 Ag -7.0531 1.8403 -3.6049 0
M  V30 80 Fe -6.2954 2.0817 -1.3689 0
M  V30 81 Ag -5.2680 2.3327 0.7557 0
M  V30 82 Ba 0.2590 2.9334 3.6640 0
M  V30 83 Ga -0.9141 2.8874 2.7705 0
M  V30 84 Ba -2.0016 2.9155 1.7740 0
M  V30 85 Ba -2.2669 6.0226 -0.3715 0
M  V30 86 Ga -3.0936 5.2063 0.5350 0
M  V30 87 Ba -3.8529 4.2767 1.3899 0
M  V30 88 Ba 0.1653 4.7411 -2.5902 0
M  V30 89 Ga 1.2306 3.6944 -2.7103 0
M  V30 90 Ba 2.3211 2.7150 -3.0201 0
M  V30 91 Ba 4.3489 -2.6655 -0.8199 0
M  V30 92 Ga 4.3228 -1.3134 -1.4176 0
M  V30 93 Ba 4.4054 0.0266 -2.0373 0
M  V30 94 Ba 2.4202 -5.0981 0.8142 0
M  V30 95 Ga 1.2519 -5.2020 1.7152 0
M  V30 96 Ba 0.0845 -5.3469 2.6116 0
M  V30 97 Ba 4.7679 -3.9214 1.0953 0
M  V30 98 Ga 5.3647 -3.5360 2.3937 0
M  V30 99 Ba 6.0608 -3.2038 3.6571 0
M  V30 END ATOM
M  V30 BEGIN BOND
M  V30 1 1 1 2
M  V30 2 1 1 3
M  V30 3 1 1 4
M  V30 4 1 1 5
M  V30 5 1 6 7
M  V30 6 1 6 8
M  V30 7 1 6 9
M  V30 8 1 6 10
M  V30 9 1 11 12
M  V30 10 1 11 13
M  V30 11 1 11 14
M  V30 12 1 11 15
M  V30 13 1 16 17
M  V30 14 1 16 18
M  V30 15 1 16 19
M  V30 16 1 16 20
M  V30 17 1 21 22
M  V30 18 1 21 23
M  V30 19 1 21 24
M  V30 20 1 21 25
M  V30 21 1 26 27
M  V30 22 1 26 28
M  V30 23 1 26 29
M  V30 24 1 26 30
M  V30 25 1 31 32
M  V30 26 1 31 33
M  V30 27 1 31 34
M  V30 28 1 31 35
M  V30 29 1 36 37
M  V30 30 1 36 38
M  V30 31 1 36 39
M  V30 32 1 36 40
M  V30 33 1 41 42
M  V30 34 1 41 43
M  V30 35 1 41 44
M  V30 36 1 41 45
M  V30 37 1 46 47
M  V30 38 1 47 48
M  V30 39 1 49 50
M  V30 40 1 50 51
M  V30 41 1 52 53
M  V30 42 1 53 54
M  V30 43 1 55 56
M  V30 44 1 56 57
M  V30 45 1 58 59
M  V30 46 1 59 60
M  V30 47 1 61 62
M  V30 48 1 62 63
M  V30 49 1 64 65
M  V30 50 1 65 66
M  V30 51 1 67 68
M  V30 52 1 68 69
M  V30 53 1 70 71
M  V30 54 1 71 72
M  V30 55 1 73 74
M  V30 56 1 74 75
M  V30 57 1 76 77
M  V30 58 1 77 78
M  V30 59 1 79 80
M  V30 60 1 80 81
M  V30 61 1 82 83
M  V30 62 1 83 84
M  V30 63 1 85 86
M  V30 64 1 86 87
M  V30 65 1 88 89
M  V30 66 1 89 90
M  V30 67 1 91 92
M  V30 68 1 92 93
M  V30 69 1 94 95
M  V30 70 1 95 96
M  V30 71 1 97 98
M  V30 72 1 98 99
M  V30 73 1 2 46
M  V30 74 1 3 97
M  V30 75 1 4 91
M  V30 76 1 5 94
M  V30 77 1 7 82
M  V30 78 1 8 61
M  V30 79 1 9 70
M  V30 80 1 10 58
M  V30 81 1 12 64
M  V30 82 1 13 79
M  V30 83 1 14 67
M  V30 84 1 15 55
M  V30 85 1 17 69
M  V30 86 1 18 52
M  V30 87 1 19 85
M  V30 88 1 20 88
M  V30 89 1 22 84
M  V30 90 1 23 81
M  V30 91 1 24 87
M  V30 92 1 25 49
M  V30 93 1 27 54
M  V30 94 1 28 76
M  V30 95 1 29 93
M  V30 96 1 30 90
M  V30 97 1 32 48
M  V30 98 1 33 78
M  V30 99 1 34 57
M  V30 100 1 35 66
M  V30 101 1 37 51
M  V30 102 1 38 73
M  V30 103 1 39 72
M  V30 104 1 40 96
M  V30 105 1 42 63
M  V30 106 1 43 99
M  V30 107 1 44 75
M  V30 108 1 45 60
M  V30 END BOND
M  V30 END CTAB
M  END

$$$$
