
     RDKit          3D

  0  0  0  0  0  0  0  0  0  0999 V3000
M  V30 BEGIN CTAB
M  V30 COUNTS 99 108 0 0 0
M  V30 BEGIN ATOM
M  V30 1 Pd 1.7027 -1.0711 4.3840 0
M  V30 2 Pb 1.7593 -0.1496 4.7607 0
M  V30 3 Pb 0.8068 -1.1479 4.8325 0
M  V30 4 Pb 2.6708 -0.9967 4.1307 0
M  V30 5 Pb 1.6305 -1.9288 3.8643 0
M  V30 6 Pd -7.9263 -1.5275 1.1181 0
M  V30 7 Pb -7.8206 -1.2305 0.1724 0
M  V30 8 Pb -7.8988 -1.8499 2.0730 0
M  V30 9 Pb -7.8412 -2.4623 0.7806 0
M  V30 10 Pb -7.9326 -0.5934 1.4669 0
M  V30 11 Pd 1.4060 4.8825 -3.4688 0
M  V30 12 Pb 0.9294 5.1699 -2.6351 0
M  V30 13 Pb 0.5829 4.4162 -3.7984 0
M  V30 14 Pb 1.9156 4.5976 -4.2809 0
M  V30 15 Pb 2.2222 5.3576 -3.1462 0
M  V30 16 Pd 4.5258 0.5681 -4.9403 0
M  V30 17 Pb 4.2743 1.4701 -5.2949 0
M  V30 18 Pb 5.1289 0.9726 -4.2251 0
M  V30 19 Pb 3.8661 0.1399 -5.5509 0
M  V30 20 Pb 4.7513 -0.3428 -4.6218 0
M  V30 21 Pd -2.6253 -1.6261 -4.4791 0
M  V30 22 Pb -3.5276 -1.5309 -4.0556 0
M  V30 23 Pb -2.6184 -0.6351 -4.6172 0
M  V30 24 Pb -1.7722 -1.6764 -4.9945 0
M  V30 25 Pb -2.5647 -2.6147 -4.3089 0
M  V30 26 Pd 5.9897 0.7223 0.8757 0
M  V30 27 Pb 6.1359 1.0619 -0.0763 0
M  V30 28 Pb 6.1201 1.6461 1.2419 0
M  V30 29 Pb 5.8140 0.3574 1.7890 0
M  V30 30 Pb 5.9368 -0.2092 0.5420 0
M  V30 31 Pd 3.2688 5.4168 1.3522 0
M  V30 32 Pb 2.9268 5.0453 2.2143 0
M  V30 33 Pb 4.1904 5.1519 1.6291 0
M  V30 34 Pb 3.6275 5.7758 0.4934 0
M  V30 35 Pb 2.3414 5.6157 1.0309 0
M  V30 36 Pd -2.2117 -5.6167 -0.3638 0
M  V30 37 Pb -2.0899 -5.4645 -1.3492 0
M  V30 38 Pb -2.3641 -5.7646 0.6104 0
M  V30 39 Pb -3.1865 -5.7563 -0.5221 0
M  V30 40 Pb -1.2609 -5.4225 -0.1151 0
M  V30 41 Pd -4.2333 -1.7419 5.4965 0
M  V30 42 Pb -5.1684 -1.9895 5.2001 0
M  V30 43 Pb -3.3057 -1.5069 5.7887 0
M  V30 44 Pb -3.9478 -2.6876 5.3703 0
M  V30 45 Pb -4.5300 -0.7907 5.5313 0
M  V30 46 Ag -7.6586 -1.0837 -0.5424 0
M  V30 47 Fe -5.9447 -1.2219 -2.1808 0
M  V30 48 Ag -4.2194 -1.3748 -3.8059 0
M  V30 49 Ag 1.7894 0.5753 4.9392 0
M  V30 50 Fe 2.2288 2.7128 4.0081 0
M  V30 51 Ag 2.7133 4.7320 2.8602 0
M  V30 52 Ag 3.3294 -0.2219 -5.9212 0
M  V30 53 Fe 1.0886 -0.9781 -5.7466 0
M  V30 54 Ag -1.1566 -1.6682 -5.4198 0
M  V30 55 Ag -7.8162 0.0311 1.8540 0
M  V30 56 Fe -6.4197 0.4278 3.7166 0
M  V30 57 Ag -4.8585 -0.1377 5.3957 0
M  V30 58 Ag 4.9072 -0.9753 -4.2764 0
M  V30 59 Fe 5.4557 -1.4379 -2.0388 0
M  V30 60 Ag 5.9030 -0.8588 0.1943 0
M  V30 61 Ag -7.6950 -3.1392 0.4998 0
M  V30 62 Fe -5.9123 -4.5868 -0.0914 0
M  V30 63 Ag -3.9308 -5.7971 -0.5728 0
M  V30 64 Ag 1.6282 -2.5116 3.3825 0
M  V30 65 Fe 0.5449 -3.9058 1.7852 0
M  V30 66 Ag -0.5954 -5.2725 0.2041 0
M  V30 67 Ag -2.4740 -5.8354 1.3457 0
M  V30 68 Fe -3.0905 -4.7183 3.3431 0
M  V30 69 Ag -3.7381 -3.3796 5.1886 0
M  V30 70 Ag -0.0379 4.0735 -4.0483 0
M  V30 71 Fe -1.3206 2.1012 -4.3837 0
M  V30 72 Ag -2.5769 0.1095 -4.7037 0
M  V30 73 Ba -2.4405 -3.3540 -4.2170 0
M  V30 74 Ga -2.2619 -4.3372 -3.1232 0
M  V30 75 Ba -2.0682 -5.3911 -2.1001 0
M  V30 76 Ba 5.5845 1.2854 -3.6902 0
M  V30 77 Ga 5.8720 1.2536 -2.2195 0
M  V30 78 Ba 6.2805 1.3405 -0.7800 0
M  V30 79 Ba 2.8278 5.7135 -2.8898 0
M  V30 80 Ga 3.3810 5.8909 -1.5379 0
M  V30 81 Ba 3.8818 6.0310 -0.1615 0
M  V30 82 Ba -7.8526 -2.0915 2.7905 0
M  V30 83 Ga -6.8343 -2.1156 3.8751 0
M  V30 84 Ba -5.8810 -2.1839 5.0154 0
M  V30 85 Ba 0.6044 5.3947 -1.9947 0
M  V30 86 Ga 1.1045 5.5751 -0.6156 0
M  V30 87 Ba 1.6568 5.7375 0.7457 0
M  V30 88 Ba 2.3307 4.4015 -4.8744 0
M  V30 89 Ga 3.1950 3.2567 -5.2232 0
M  V30 90 Ba 4.0659 2.1253 -5.5981 0
M  V30 91 Ba 3.4206 -0.9389 4.0758 0
M  V30 92 Ga 4.5115 -0.4318 3.2184 0
M  V30 93 Ba 5.6864 0.0311 2.4513 0
M  V30 94 Ba 0.2313 -1.1264 5.3217 0
M  V30 95 Ga -1.2192 -1.2665 5.5712 0
M  V30 96 Ba -2.6176 -1.3534 6.0456 0
M  V30 97 Ba 6.2626 2.3278 1.5268 0
M  V30 98 Ga 5.5644 3.6194 1.6734 0
M  V30 99 Ba 4.8726 4.9141 1.8239 0
M  V30 END ATOM
M  V30 BEGIN BOND
M  V30 1 1 1 2
M  V30 2 1 1 3
M  V30 3 1 1 4
M  V30 4 1 1 5
M  V30 5 1 6 7
M  V30 6 1 6 8
M  V30 7 1 6 9
M  V30 8 1 6 10
M  V30 9 1 11 12
M  V30 10 1 11 13
M  V30 11 1 11 14
M  V30 12 1 11 15
M  V30 13 1 16 17
M  V30 14 1 16 18
M  V30 15 1 16 19
M  V30 16 1 16 20
M  V30 17 1 21 22
M  V30 18 1 21 23
M  V30 19 1 21 24
M  V30 20 1 21 25
M  V30 21 1 26 27
M  V30 22 1 26 28
M  V30 23 1 26 29
M  V30 24 1 26 30
M  V30 25 1 31 32
M  V30 26 1 31 33
M  V30 27 1 31 34
M  V30 28 1 31 35
M  V30 29 1 36 37
M  V30 30 1 36 38
M  V30 31 1 36 39
M  V30 32 1 36 40
M  V30 33 1 41 42
M  V30 34 1 41 43
M  V30 35 1 41 44
M  V30 36 1 41 45
M  V30 37 1 46 47
M  V30 38 1 47 48
M  V30 39 1 49 50
M  V30 40 1 50 51
M  V30 41 1 52 53
M  V30 42 1 53 54
M  V30 43 1 55 56
M  V30 44 1 56 57
M  V30 45 1 58 59
M  V30 46 1 59 60
M  V30 47 1 61 62
M  V30 48 1 62 63
M  V30 49 1 64 65
M  V30 50 1 65 66
M  V30 51 1 67 68
M  V30 52 1 68 69
M  V30 53 1 70 71
M  V30 54 1 71 72
M  V30 55 1 73 74
M  V30 56 1 74 75
M  V30 57 1 76 77
M  V30 58 1 77 78
M  V30 59 1 79 80
M  V30 60 1 80 81
M  V30 61 1 82 83
M  V30 62 1 83 84
M  V30 63 1 85 86
M  V30 64 1 86 87
M  V30 65 1 88 89
M  V30 66 1 89 90
M  V30 67 1 91 92
M  V30 68 1 92 93
M  V30 69 1 94 95
M  V30 70 1 95 96
M  V30 71 1 97 98
M  V30 72 1 98 99
M  V30 73 1 2 49
M  V30 74 1 3 94
M  V30 75 1 4 91
M  V30 76 1 5 64
M  V30 77 1 7 46
M  V30 78 1 8 82
M  V30 79 1 9 61
M  V30 80 1 10 55
M  V30 81 1 12 85
M  V30 82 1 13 70
M  V30 83 1 14 88
M  V30 84 1 15 79
M  V30 85 1 17 90
M  V30 86 1 18 76
M  V30 87 1 19 52
M  V30 88 1 20 58
M  V30 89 1 22 48
M  V30 90 1 23 72
M  V30 91 1 24 54
M  V30 92 1 25 73
M  V30 93 1 27 78
M  V30 94 1 28 97
M  V30 95 1 29 93
M  V30 96 1 30 60
M  V30 97 1 32 51
M  V30 98 1 33 99
M  V30 99 1 34 81
M  V30 100 1 35 87
M  V30 101 1 37 75
M  V30 102 1 38 67
M  V30 103 1 39 63
M  V30 104 1 40 66
M  V30 105 1 42 84
M  V30 106 1 43 96
M  V30 107 1 44 69
M  V30 108 1 45 57
M  V30 END BOND
M  V30 END CTAB
M  END

$$$$
