
     RDKit          3D

  0  0  0  0  0  0  0  0  0  0999 V3000
M  V30 BEGIN CTAB
M  V30 COUNTS 99 108 0 0 0
M  V30 BEGIN ATOM
M  V30 1 Pd 1.0163 -0.1708 -3.9355 0
M  V30 2 Pb 1.5707 0.5766 -3.5737 0
M  V30 3 Pb 0.8191 -0.7879 -4.6993 0
M  V30 4 Pb 0.3564 0.4625 -4.3380 0
M  V30 5 Pb 0.2784 -0.8237 -3.7665 0
M  V30 6 Pd 3.1507 6.2421 4.3848 0
M  V30 7 Pb 3.5176 5.7844 3.5725 0
M  V30 8 Pb 2.6204 6.8320 3.7807 0
M  V30 9 Pb 2.6071 6.5795 5.1512 0
M  V30 10 Pb 3.5629 5.5847 5.0123 0
M  V30 11 Pd -4.3007 0.8902 -3.1909 0
M  V30 12 Pb -3.5813 1.1366 -3.8411 0
M  V30 13 Pb -5.0204 0.7220 -2.5211 0
M  V30 14 Pb -4.9589 0.7057 -3.9416 0
M  V30 15 Pb -3.6210 0.6151 -2.5110 0
M  V30 16 Pd -2.1139 3.6073 3.7453 0
M  V30 17 Pb -2.1903 4.4626 3.2388 0
M  V30 18 Pb -2.2012 4.1284 4.5923 0
M  V30 19 Pb -1.9008 2.7956 4.2888 0
M  V30 20 Pb -1.8300 3.1831 2.8851 0
M  V30 21 Pd 2.5538 1.3512 1.1024 0
M  V30 22 Pb 1.6894 1.8650 1.0949 0
M  V30 23 Pb 2.7649 2.3154 1.3160 0
M  V30 24 Pb 2.9530 0.4503 0.9083 0
M  V30 25 Pb 2.7070 1.6152 0.1489 0
M  V30 26 Pd -5.2317 -3.8700 -4.6871 0
M  V30 27 Pb -4.5814 -4.2699 -4.0413 0
M  V30 28 Pb -4.5606 -3.9387 -5.4259 0
M  V30 29 Pb -5.9256 -3.8695 -3.9706 0
M  V30 30 Pb -5.6984 -3.0887 -5.1374 0
M  V30 31 Pd 2.5222 0.7728 5.6256 0
M  V30 32 Pb 3.4713 0.4868 5.6145 0
M  V30 33 Pb 2.2674 -0.1687 5.3415 0
M  V30 34 Pb 2.8445 1.6685 5.9404 0
M  V30 35 Pb 1.5392 0.9777 5.6843 0
M  V30 36 Pd 2.8347 -4.4008 2.2146 0
M  V30 37 Pb 3.1062 -3.6545 1.6021 0
M  V30 38 Pb 2.5940 -3.7605 2.9687 0
M  V30 39 Pb 2.5188 -4.9622 1.4485 0
M  V30 40 Pb 3.5988 -4.1208 2.7805 0
M  V30 41 Pd -0.1056 -5.3632 -4.8653 0
M  V30 42 Pb 0.2008 -5.8523 -4.0503 0
M  V30 43 Pb -0.7730 -5.1724 -5.5854 0
M  V30 44 Pb 0.0538 -4.6253 -5.5159 0
M  V30 45 Pb -0.5683 -4.6854 -4.3013 0
M  V30 46 Ag 2.0889 7.1489 3.3668 0
M  V30 47 Fe -0.1228 6.4718 2.8796 0
M  V30 48 Ag -2.0594 5.1169 2.9093 0
M  V30 49 Ag 4.1075 0.1190 5.5583 0
M  V30 50 Fe 4.5694 -1.9137 4.4664 0
M  V30 51 Ag 4.1592 -3.8363 3.1708 0
M  V30 52 Ag 2.2787 -5.4161 0.9004 0
M  V30 53 Fe 1.3656 -5.8064 -1.2570 0
M  V30 54 Ag 0.4521 -6.1677 -3.4193 0
M  V30 55 Ag -5.5631 0.4555 -2.0923 0
M  V30 56 Fe -6.5008 -1.6914 -2.2356 0
M  V30 57 Ag -6.3886 -3.7195 -3.4116 0
M  V30 58 Ag 2.0579 6.6962 5.6434 0
M  V30 59 Fe -0.1422 5.8270 5.7594 0
M  V30 60 Ag -2.0688 4.5818 5.1704 0
M  V30 61 Ag -3.2095 0.1138 -2.1332 0
M  V30 62 Fe -3.2967 -2.2365 -2.4743 0
M  V30 63 Ag -4.0666 -4.2394 -3.4958 0
M  V30 64 Ba -4.0685 -4.0399 -5.9833 0
M  V30 65 Ga -2.6717 -4.5089 -6.0578 0
M  V30 66 Ba -1.2745 -4.9796 -6.1092 0
M  V30 67 Ba 2.0611 -0.8920 5.2015 0
M  V30 68 Ga 2.2691 -2.0673 4.3036 0
M  V30 69 Ba 2.3080 -3.3603 3.5576 0
M  V30 70 Ba -0.2769 -1.2887 -3.5717 0
M  V30 71 Ga -0.5998 -2.7145 -3.7452 0
M  V30 72 Ba -0.9144 -4.1411 -3.9267 0
M  V30 73 Ba -5.4202 0.4143 -4.4855 0
M  V30 74 Ga -5.7083 -0.9899 -4.9448 0
M  V30 75 Ba -5.9697 -2.4083 -5.3756 0
M  V30 76 Ba 3.2602 -0.1983 0.6759 0
M  V30 77 Ga 3.2679 -1.6491 0.9655 0
M  V30 78 Ba 3.3656 -3.1142 1.1466 0
M  V30 79 Ba -1.5606 2.9878 2.2109 0
M  V30 80 Ga -0.2632 2.5390 1.6540 0
M  V30 81 Ba 0.9796 2.1016 0.9773 0
M  V30 82 Ba 3.7866 5.0965 5.5339 0
M  V30 83 Ga 3.4783 3.6838 5.8352 0
M  V30 84 Ba 3.2070 2.2777 6.1960 0
M  V30 85 Ba 3.6980 5.4536 2.9203 0
M  V30 86 Ga 3.3511 4.1959 2.2113 0
M  V30 87 Ba 3.0956 2.9987 1.3723 0
M  V30 88 Ba 1.9996 1.1181 -3.2854 0
M  V30 89 Ga 2.4092 1.4804 -1.9157 0
M  V30 90 Ba 2.8287 1.8556 -0.5524 0
M  V30 91 Ba -1.7072 2.2376 4.7518 0
M  V30 92 Ga -0.4324 1.6452 5.2150 0
M  V30 93 Ba 0.7851 0.9912 5.7440 0
M  V30 94 Ba -0.1539 0.9017 -4.6668 0
M  V30 95 Ga -1.5993 1.1319 -4.4833 0
M  V30 96 Ba -3.0446 1.3706 -4.3108 0
M  V30 97 Ba 0.7068 -1.2085 -5.3125 0
M  V30 98 Ga 0.4329 -2.6194 -5.6388 0
M  V30 99 Ba 0.1574 -4.0318 -5.9570 0
M  V30 END ATOM
M  V30 BEGIN BOND
M  V30 1 1 1 2
M  V30 2 1 1 3
M  V30 3 1 1 4
M  V30 4 1 1 5
M  V30 5 1 6 7
M  V30 6 1 6 8
M  V30 7 1 6 9
M  V30 8 1 6 10
M  V30 9 1 11 12
M  V30 10 1 11 13
M  V30 11 1 11 14
M  V30 12 1 11 15
M  V30 13 1 16 17
M  V30 14 1 16 18
M  V30 15 1 16 19
M  V30 16 1 16 20
M  V30 17 1 21 22
M  V30 18 1 21 23
M  V30 19 1 21 24
M  V30 20 1 21 25
M  V30 21 1 26 27
M  V30 22 1 26 28
M  V30 23 1 26 29
M  V30 24 1 26 30
M  V30 25 1 31 32
M  V30 26 1 31 33
M  V30 27 1 31 34
M  V30 28 1 31 35
M  V30 29 1 36 37
M  V30 30 1 36 38
M  V30 31 1 36 39
M  V30 32 1 36 40
M  V30 33 1 41 42
M  V30 34 1 41 43
M  V30 35 1 41 44
M  V30 36 1 41 45
M  V30 37 1 46 47
M  V30 38 1 47 48
M  V30 39 1 49 50
M  V30 40 1 50 51
M  V30 41 1 52 53
M  V30 42 1 53 54
M  V30 43 1 55 56
M  V30 44 1 56 57
M  V30 45 1 58 59
M  V30 46 1 59 60
M  V30 47 1 61 62
M  V30 48 1 62 63
M  V30 49 1 64 65
M  V30 50 1 65 66
M  V30 51 1 67 68
M  V30 52 1 68 69
M  V30 53 1 70 71
M  V30 54 1 71 72
M  V30 55 1 73 74
M  V30 56 1 74 75
M  V30 57 1 76 77
M  V30 58 1 77 78
M  V30 59 1 79 80
M  V30 60 1 80 81
M  V30 61 1 82 83
M  V30 62 1 83 84
M  V30 63 1 85 86
M  V30 64 1 86 87
M  V30 65 1 88 89
M  V30 66 1 89 90
M  V30 67 1 91 92
M  V30 68 1 92 93
M  V30 69 1 94 95
M  V30 70 1 95 96
M  V30 71 1 97 98
M  V30 72 1 98 99
M  V30 73 1 2 88
M  V30 74 1 3 97
M  V30 75 1 4 94
M  V30 76 1 5 70
M  V30 77 1 7 85
M  V30 78 1 8 46
M  V30 79 1 9 58
M  V30 80 1 10 82
M  V30 81 1 12 96
M  V30 82 1 13 55
M  V30 83 1 14 73
M  V30 84 1 15 61
M  V30 85 1 17 48
M  V30 86 1 18 60
M  V30 87 1 19 91
M  V30 88 1 20 79
M  V30 89 1 22 81
M  V30 90 1 23 87
M  V30 91 1 24 76
M  V30 92 1 25 90
M  V30 93 1 27 63
M  V30 94 1 28 64
M  V30 95 1 29 57
M  V30 96 1 30 75
M  V30 97 1 32 49
M  V30 98 1 33 67
M  V30 99 1 34 84
M  V30 100 1 35 93
M  V30 101 1 37 78
M  V30 102 1 38 69
M  V30 103 1 39 52
M  V30 104 1 40 51
M  V30 105 1 42 54
M  V30 106 1 43 66
M  V30 107 1 44 99
M  V30 108 1 45 72
M  V30 END BOND
M  V30 END CTAB
M  END

$$$$
