
     RDKit          3D

  0  0  0  0  0  0  0  0  0  0999 V3000
M  V30 BEGIN CTAB
M  V30 COUNTS 99 108 0 0 0
M  V30 BEGIN ATOM
M  V30 1 Pd 1.2671 -3.8652 -0.2119 0
M  V30 2 Pb 0.3987 -4.3182 -0.0223 0
M  V30 3 Pb 0.7316 -3.0304 -0.3245 0
M  V30 4 Pb 1.7704 -4.7100 -0.0179 0
M  V30 5 Pb 2.1053 -3.3536 -0.4153 0
M  V30 6 Pd -2.5408 4.2253 -6.6877 0
M  V30 7 Pb -2.1635 4.9868 -6.1606 0
M  V30 8 Pb -3.2612 4.0673 -6.0121 0
M  V30 9 Pb -1.7301 4.2296 -7.2679 0
M  V30 10 Pb -2.8696 3.4071 -7.1547 0
M  V30 11 Pd -2.3806 2.2254 4.2296 0
M  V30 12 Pb -3.0929 1.5333 3.9991 0
M  V30 13 Pb -2.3488 2.5528 3.2804 0
M  V30 14 Pb -1.6485 2.8569 4.4859 0
M  V30 15 Pb -2.4600 1.9595 5.1837 0
M  V30 16 Pd 2.9630 1.6616 4.4988 0
M  V30 17 Pb 2.3155 2.3752 4.7721 0
M  V30 18 Pb 3.5906 0.9438 4.2040 0
M  V30 19 Pb 3.2405 2.2162 3.7194 0
M  V30 20 Pb 2.6700 1.0353 5.2224 0
M  V30 21 Pd 1.0676 4.8897 -2.3614 0
M  V30 22 Pb 0.4943 5.3395 -3.0538 0
M  V30 23 Pb 0.2577 4.7056 -1.7980 0
M  V30 24 Pb 1.6654 4.5630 -1.6326 0
M  V30 25 Pb 1.8973 4.9953 -2.9138 0
M  V30 26 Pd 2.5757 -5.4743 4.3468 0
M  V30 27 Pb 3.3261 -4.8857 4.0572 0
M  V30 28 Pb 1.7692 -5.9896 4.6353 0
M  V30 29 Pb 2.7015 -6.0322 3.5260 0
M  V30 30 Pb 2.4157 -4.8227 5.0906 0
M  V30 31 Pd -4.1431 -3.4069 4.7846 0
M  V30 32 Pb -4.0259 -3.7809 3.8673 0
M  V30 33 Pb -3.7676 -4.2704 5.1170 0
M  V30 34 Pb -4.1820 -3.0433 5.7084 0
M  V30 35 Pb -4.3899 -2.4886 4.4195 0
M  V30 36 Pd 3.7047 1.2582 -5.0065 0
M  V30 37 Pb 3.9974 2.1833 -4.7555 0
M  V30 38 Pb 3.3242 0.3578 -5.2188 0
M  V30 39 Pb 3.3134 1.6643 -5.8323 0
M  V30 40 Pb 4.0536 0.8399 -4.1660 0
M  V30 41 Pd -2.5989 -1.6561 -3.6388 0
M  V30 42 Pb -3.3157 -0.9990 -3.4037 0
M  V30 43 Pb -2.1866 -1.5418 -2.7359 0
M  V30 44 Pb -1.7893 -2.1456 -3.9572 0
M  V30 45 Pb -2.9468 -1.6318 -4.5725 0
M  V30 46 Ag -0.2920 -4.5651 0.1230 0
M  V30 47 Fe -2.1359 -4.4062 1.6068 0
M  V30 48 Ag -3.8520 -4.1056 3.2168 0
M  V30 49 Ag 3.4347 2.5868 3.1015 0
M  V30 50 Fe 2.7778 3.4880 1.0082 0
M  V30 51 Ag 2.1552 4.3970 -1.0922 0
M  V30 52 Ag 4.0156 0.3636 3.9999 0
M  V30 53 Fe 4.0778 -2.0030 3.8690 0
M  V30 54 Ag 3.8224 -4.3601 3.8719 0
M  V30 55 Ag -2.5905 1.6724 5.8539 0
M  V30 56 Fe -3.3754 -0.4230 6.5887 0
M  V30 57 Ag -4.1179 -2.6418 6.3259 0
M  V30 58 Ag -3.0929 2.7361 -7.3952 0
M  V30 59 Fe -3.2414 0.5214 -6.5666 0
M  V30 60 Ag -3.1666 -1.4555 -5.2629 0
M  V30 61 Ag -3.7274 3.7918 -5.4929 0
M  V30 62 Fe -3.9654 1.7652 -4.2768 0
M  V30 63 Ag -3.7723 -0.4074 -3.3359 0
M  V30 64 Ag 2.4908 0.4762 5.6908 0
M  V30 65 Fe 2.3474 -1.8945 5.7863 0
M  V30 66 Ag 2.2989 -4.2618 5.5774 0
M  V30 67 Ag -1.0729 4.1259 -7.6075 0
M  V30 68 Fe 1.0256 3.1104 -7.1650 0
M  V30 69 Ag 2.9914 2.0153 -6.4115 0
M  V30 70 Ag 2.6929 -2.9137 -0.5831 0
M  V30 71 Fe 3.5559 -1.2284 -2.0221 0
M  V30 72 Ag 4.2554 0.4485 -3.5565 0
M  V30 73 Ag 2.9926 -0.3115 -5.2893 0
M  V30 74 Fe 0.9896 -1.5007 -4.8295 0
M  V30 75 Ag -1.1377 -2.3769 -4.2436 0
M  V30 76 Ag 1.1206 -6.2827 4.8700 0
M  V30 77 Fe -1.1758 -5.7534 5.1542 0
M  V30 78 Ag -3.3821 -4.8885 5.2889 0
M  V30 79 Ag -2.3605 2.8369 2.5815 0
M  V30 80 Fe -1.3190 3.6776 0.6140 0
M  V30 81 Ag -0.3470 4.5289 -1.3844 0
M  V30 82 Ba -1.8509 5.5397 -5.7612 0
M  V30 83 Ga -0.8860 5.6063 -4.6424 0
M  V30 84 Ba 0.0739 5.7517 -3.5270 0
M  V30 85 Ba 2.5574 5.0157 -3.2753 0
M  V30 86 Ga 3.3706 3.9789 -3.9479 0
M  V30 87 Ba 4.1456 2.9069 -4.6104 0
M  V30 88 Ba -3.6495 1.0300 3.8298 0
M  V30 89 Ga -4.0478 -0.4017 4.0182 0
M  V30 90 Ba -4.5711 -1.8011 4.1280 0
M  V30 91 Ba -1.0863 3.2998 4.7116 0
M  V30 92 Ga 0.3746 3.1190 4.8277 0
M  V30 93 Ba 1.8344 2.9279 4.9402 0
M  V30 94 Ba 2.1116 -5.3511 0.1796 0
M  V30 95 Ga 2.4741 -5.9062 1.5002 0
M  V30 96 Ba 2.7982 -6.3733 2.8641 0
M  V30 97 Ba 0.2861 -2.4294 -0.3516 0
M  V30 98 Ga -0.7786 -1.9254 -1.2374 0
M  V30 99 Ba -1.8510 -1.3763 -2.0864 0
M  V30 END ATOM
M  V30 BEGIN BOND
M  V30 1 1 1 2
M  V30 2 1 1 3
M  V30 3 1 1 4
M  V30 4 1 1 5
M  V30 5 1 6 7
M  V30 6 1 6 8
M  V30 7 1 6 9
M  V30 8 1 6 10
M  V30 9 1 11 12
M  V30 10 1 11 13
M  V30 11 1 11 14
M  V30 12 1 11 15
M  V30 13 1 16 17
M  V30 14 1 16 18
M  V30 15 1 16 19
M  V30 16 1 16 20
M  V30 17 1 21 22
M  V30 18 1 21 23
M  V30 19 1 21 24
M  V30 20 1 21 25
M  V30 21 1 26 27
M  V30 22 1 26 28
M  V30 23 1 26 29
M  V30 24 1 26 30
M  V30 25 1 31 32
M  V30 26 1 31 33
M  V30 27 1 31 34
M  V30 28 1 31 35
M  V30 29 1 36 37
M  V30 30 1 36 38
M  V30 31 1 36 39
M  V30 32 1 36 40
M  V30 33 1 41 42
M  V30 34 1 41 43
M  V30 35 1 41 44
M  V30 36 1 41 45
M  V30 37 1 46 47
M  V30 38 1 47 48
M  V30 39 1 49 50
M  V30 40 1 50 51
M  V30 41 1 52 53
M  V30 42 1 53 54
M  V30 43 1 55 56
M  V30 44 1 56 57
M  V30 45 1 58 59
M  V30 46 1 59 60
M  V30 47 1 61 62
M  V30 48 1 62 63
M  V30 49 1 64 65
M  V30 50 1 65 66
M  V30 51 1 67 68
M  V30 52 1 68 69
M  V30 53 1 70 71
M  V30 54 1 71 72
M  V30 55 1 73 74
M  V30 56 1 74 75
M  V30 57 1 76 77
M  V30 58 1 77 78
M  V30 59 1 79 80
M  V30 60 1 80 81
M  V30 61 1 82 83
M  V30 62 1 83 84
M  V30 63 1 85 86
M  V30 64 1 86 87
M  V30 65 1 88 89
M  V30 66 1 89 90
M  V30 67 1 91 92
M  V30 68 1 92 93
M  V30 69 1 94 95
M  V30 70 1 95 96
M  V30 71 1 97 98
M  V30 72 1 98 99
M  V30 73 1 2 46
M  V30 74 1 3 97
M  V30 75 1 4 94
M  V30 76 1 5 70
M  V30 77 1 7 82
M  V30 78 1 8 61
M  V30 79 1 9 67
M  V30 80 1 10 58
M  V30 81 1 12 88
M  V30 82 1 13 79
M  V30 83 1 14 91
M  V30 84 1 15 55
M  V30 85 1 17 93
M  V30 86 1 18 52
M  V30 87 1 19 49
M  V30 88 1 20 64
M  V30 89 1 22 84
M  V30 90 1 23 81
M  V30 91 1 24 51
M  V30 92 1 25 85
M  V30 93 1 27 54
M  V30 94 1 28 76
M  V30 95 1 29 96
M  V30 96 1 30 66
M  V30 97 1 32 48
M  V30 98 1 33 78
M  V30 99 1 34 57
M  V30 100 1 35 90
M  V30 101 1 37 87
M  V30 102 1 38 73
M  V30 103 1 39 69
M  V30 104 1 40 72
M  V30 105 1 42 63
M  V30 106 1 43 99
M  V30 107 1 44 75
M  V30 108 1 45 60
M  V30 END BOND
M  V30 END CTAB
M  END

$$$$
