
     RDKit          3D

  0  0  0  0  0  0  0  0  0  0999 V3000
M  V30 BEGIN CTAB
M  V30 COUNTS 99 108 0 0 0
M  V30 BEGIN ATOM
M  V30 1 Pd 1.0224 5.5983 -2.7814 0
M  V30 2 Pb 1.7386 4.9028 -2.7020 0
M  V30 3 Pb 0.9354 5.6480 -1.7857 0
M  V30 4 Pb 0.9894 5.4822 -3.7726 0
M  V30 5 Pb 0.2679 6.2473 -2.8530 0
M  V30 6 Pd -1.2454 -5.3107 -2.5826 0
M  V30 7 Pb -0.4103 -5.3601 -3.1277 0
M  V30 8 Pb -2.0463 -5.2501 -1.9889 0
M  V30 9 Pb -0.7583 -5.6947 -1.7962 0
M  V30 10 Pb -1.7439 -4.9080 -3.3543 0
M  V30 11 Pd -1.1958 1.8655 3.6899 0
M  V30 12 Pb -1.7142 1.6934 2.8511 0
M  V30 13 Pb -1.9180 1.4243 4.2138 0
M  V30 14 Pb -0.4683 2.2610 3.1151 0
M  V30 15 Pb -0.7405 1.9655 4.5824 0
M  V30 16 Pd -2.1730 0.7266 -7.1960 0
M  V30 17 Pb -2.5312 -0.1903 -7.0111 0
M  V30 18 Pb -2.9645 1.1390 -6.7424 0
M  V30 19 Pb -1.3232 0.3311 -7.5369 0
M  V30 20 Pb -1.7486 1.6252 -7.3007 0
M  V30 21 Pd -3.1529 4.3808 -0.9453 0
M  V30 22 Pb -3.0747 5.2592 -1.4124 0
M  V30 23 Pb -3.1938 3.4906 -0.4929 0
M  V30 24 Pb -3.7684 4.0504 -1.6621 0
M  V30 25 Pb -2.4390 4.6850 -0.3125 0
M  V30 26 Pd 3.5134 0.3401 1.7466 0
M  V30 27 Pb 4.0670 1.0574 2.1603 0
M  V30 28 Pb 2.9957 -0.3940 1.3088 0
M  V30 29 Pb 3.9307 -0.3543 2.3547 0
M  V30 30 Pb 2.9397 1.0642 1.3644 0
M  V30 31 Pd 2.1362 -0.9494 6.7053 0
M  V30 32 Pb 2.8472 -1.3859 6.1326 0
M  V30 33 Pb 1.4073 -0.3589 7.0479 0
M  V30 34 Pb 1.5997 -1.8016 6.7392 0
M  V30 35 Pb 2.7218 -0.1523 6.8075 0
M  V30 36 Pd -1.7912 -4.8042 4.6164 0
M  V30 37 Pb -1.1645 -5.3548 4.0663 0
M  V30 38 Pb -2.4039 -4.1740 5.0817 0
M  V30 39 Pb -1.1112 -4.6596 5.3386 0
M  V30 40 Pb -2.4461 -4.8900 3.8656 0
M  V30 41 Pd 2.9208 -1.9078 -3.3304 0
M  V30 42 Pb 2.6830 -2.8473 -3.5796 0
M  V30 43 Pb 2.7163 -2.0952 -2.3692 0
M  V30 44 Pb 2.9890 -1.7092 -4.3051 0
M  V30 45 Pb 3.1672 -0.9623 -3.1070 0
M  V30 46 Ag -0.6399 0.0665 -7.6816 0
M  V30 47 Fe 1.2595 -0.7788 -6.5426 0
M  V30 48 Ag 2.9075 -1.5719 -5.0345 0
M  V30 49 Ag 2.2550 4.3609 -2.6351 0
M  V30 50 Fe 2.8142 2.0558 -2.7924 0
M  V30 51 Ag 3.3612 -0.2520 -2.9533 0
M  V30 52 Ag 0.8646 5.3568 -4.5001 0
M  V30 53 Fe -0.2156 3.8819 -6.0144 0
M  V30 54 Ag -1.3654 2.2689 -7.3226 0
M  V30 55 Ag -0.4382 -5.9600 -1.1703 0
M  V30 56 Fe -0.4837 -5.9263 1.2048 0
M  V30 57 Ag -0.7459 -5.7100 3.5559 0
M  V30 58 Ag -2.4016 1.0144 4.6041 0
M  V30 59 Fe -2.8215 -1.2524 5.1357 0
M  V30 60 Ag -2.8071 -3.6085 5.3465 0
M  V30 61 Ag -3.5080 1.4563 -6.3323 0
M  V30 62 Fe -3.9556 2.6282 -4.3139 0
M  V30 63 Ag -4.1565 3.7862 -2.2485 0
M  V30 64 Ag -2.5783 -5.2178 -1.4629 0
M  V30 65 Fe -2.8760 -5.0792 0.8883 0
M  V30 66 Ag -2.8832 -4.9370 3.2582 0
M  V30 67 Ag 4.4044 1.5296 2.6179 0
M  V30 68 Fe 4.1773 1.5042 4.9526 0
M  V30 69 Ag 3.1744 0.4334 6.7848 0
M  V30 70 Ag -2.1164 -4.5979 -3.9308 0
M  V30 71 Fe -2.4647 -2.7593 -5.3982 0
M  V30 72 Ag -2.7583 -0.8840 -6.8306 0
M  V30 73 Ba -0.3420 6.6786 -2.8794 0
M  V30 74 Ga -1.6806 6.3753 -2.3516 0
M  V30 75 Ba -2.9447 5.9054 -1.7652 0
M  V30 76 Ba 0.7712 5.6591 -1.0530 0
M  V30 77 Ga -0.5074 5.3053 -0.4036 0
M  V30 78 Ba -1.8459 4.9174 0.0860 0
M  V30 79 Ba 0.0067 2.5292 2.5876 0
M  V30 80 Ga 1.2461 2.0950 1.8979 0
M  V30 81 Ba 2.4901 1.6499 1.2235 0
M  V30 82 Ba 4.1758 -0.8699 2.8635 0
M  V30 83 Ga 3.7772 -1.2573 4.2518 0
M  V30 84 Ba 3.3736 -1.6394 5.6402 0
M  V30 85 Ba -0.5510 1.9670 5.3174 0
M  V30 86 Ga 0.1905 1.0959 6.2629 0
M  V30 87 Ba 0.9469 0.2181 7.1900 0
M  V30 88 Ba 0.2370 -5.3926 -3.5023 0
M  V30 89 Ga 1.3738 -4.4662 -3.6557 0
M  V30 90 Ba 2.5118 -3.5412 -3.8093 0
M  V30 91 Ba 2.6564 -0.9873 1.0012 0
M  V30 92 Ga 2.5847 -1.5923 -0.3425 0
M  V30 93 Ba 2.4865 -2.2329 -1.6678 0
M  V30 94 Ba -2.1269 1.5223 2.2474 0
M  V30 95 Ga -2.6570 2.1943 1.0458 0
M  V30 96 Ba -3.2128 2.8135 -0.1725 0
M  V30 97 Ba 1.2811 -2.4795 6.8535 0
M  V30 98 Ga 0.3138 -3.4636 6.3148 0
M  V30 99 Ba -0.6191 -4.5354 5.8944 0
M  V30 END ATOM
M  V30 BEGIN BOND
M  V30 1 1 1 2
M  V30 2 1 1 3
M  V30 3 1 1 4
M  V30 4 1 1 5
M  V30 5 1 6 7
M  V30 6 1 6 8
M  V30 7 1 6 9
M  V30 8 1 6 10
M  V30 9 1 11 12
M  V30 10 1 11 13
M  V30 11 1 11 14
M  V30 12 1 11 15
M  V30 13 1 16 17
M  V30 14 1 16 18
M  V30 15 1 16 19
M  V30 16 1 16 20
M  V30 17 1 21 22
M  V30 18 1 21 23
M  V30 19 1 21 24
M  V30 20 1 21 25
M  V30 21 1 26 27
M  V30 22 1 26 28
M  V30 23 1 26 29
M  V30 24 1 26 30
M  V30 25 1 31 32
M  V30 26 1 31 33
M  V30 27 1 31 34
M  V30 28 1 31 35
M  V30 29 1 36 37
M  V30 30 1 36 38
M  V30 31 1 36 39
M  V30 32 1 36 40
M  V30 33 1 41 42
M  V30 34 1 41 43
M  V30 35 1 41 44
M  V30 36 1 41 45
M  V30 37 1 46 47
M  V30 38 1 47 48
M  V30 39 1 49 50
M  V30 40 1 50 51
M  V30 41 1 52 53
M  V30 42 1 53 54
M  V30 43 1 55 56
M  V30 44 1 56 57
M  V30 45 1 58 59
M  V30 46 1 59 60
M  V30 47 1 61 62
M  V30 48 1 62 63
M  V30 49 1 64 65
M  V30 50 1 65 66
M  V30 51 1 67 68
M  V30 52 1 68 69
M  V30 53 1 70 71
M  V30 54 1 71 72
M  V30 55 1 73 74
M  V30 56 1 74 75
M  V30 57 1 76 77
M  V30 58 1 77 78
M  V30 59 1 79 80
M  V30 60 1 80 81
M  V30 61 1 82 83
M  V30 62 1 83 84
M  V30 63 1 85 86
M  V30 64 1 86 87
M  V30 65 1 88 89
M  V30 66 1 89 90
M  V30 67 1 91 92
M  V30 68 1 92 93
M  V30 69 1 94 95
M  V30 70 1 95 96
M  V30 71 1 97 98
M  V30 72 1 98 99
M  V30 73 1 2 49
M  V30 74 1 3 76
M  V30 75 1 4 52
M  V30 76 1 5 73
M  V30 77 1 7 88
M  V30 78 1 8 64
M  V30 79 1 9 55
M  V30 80 1 10 70
M  V30 81 1 12 94
M  V30 82 1 13 58
M  V30 83 1 14 79
M  V30 84 1 15 85
M  V30 85 1 17 72
M  V30 86 1 18 61
M  V30 87 1 19 46
M  V30 88 1 20 54
M  V30 89 1 22 75
M  V30 90 1 23 96
M  V30 91 1 24 63
M  V30 92 1 25 78
M  V30 93 1 27 67
M  V30 94 1 28 91
M  V30 95 1 29 82
M  V30 96 1 30 81
M  V30 97 1 32 84
M  V30 98 1 33 87
M  V30 99 1 34 97
M  V30 100 1 35 69
M  V30 101 1 37 57
M  V30 102 1 38 60
M  V30 103 1 39 99
M  V30 104 1 40 66
M  V30 105 1 42 90
M  V30 106 1 43 93
M  V30 107 1 44 48
M  V30 108 1 45 51
M  V30 END BOND
M  V30 END CTAB
M  END

$$$$
