
     RDKit          3D

  0  0  0  0  0  0  0  0  0  0999 V3000
M  V30 BEGIN CTAB
M  V30 COUNTS 99 108 0 0 0
M  V30 BEGIN ATOM
M  V30 1 Pd -2.8328 0.2119 4.0278 0
M  V30 2 Pb -3.3951 0.9367 3.6191 0
M  V30 3 Pb -2.3452 -0.5425 4.4753 0
M  V30 4 Pb -3.1969 -0.4639 3.3879 0
M  V30 5 Pb -2.4671 0.8921 4.6692 0
M  V30 6 Pd 5.4307 -3.0285 2.5435 0
M  V30 7 Pb 4.8038 -2.7648 1.8079 0
M  V30 8 Pb 5.9813 -3.2949 3.3337 0
M  V30 9 Pb 5.7203 -2.0824 2.6682 0
M  V30 10 Pb 5.0502 -3.9531 2.5340 0
M  V30 11 Pd -0.5501 4.1306 -6.1626 0
M  V30 12 Pb -0.7115 4.5610 -5.2733 0
M  V30 13 Pb 0.4316 4.2530 -6.0360 0
M  V30 14 Pb -0.4120 3.6030 -6.9999 0
M  V30 15 Pb -1.5274 3.9431 -6.2031 0
M  V30 16 Pd -0.9833 -1.0808 -6.7148 0
M  V30 17 Pb -0.8029 -0.3303 -7.3556 0
M  V30 18 Pb -1.1507 -1.8338 -6.0819 0
M  V30 19 Pb -0.0002 -1.2146 -6.5835 0
M  V30 20 Pb -1.9753 -0.9379 -6.7767 0
M  V30 21 Pd 3.8689 0.7757 -1.6906 0
M  V30 22 Pb 3.6698 -0.0314 -1.1310 0
M  V30 23 Pb 4.0053 1.5574 -2.2959 0
M  V30 24 Pb 3.9798 0.1844 -2.4879 0
M  V30 25 Pb 3.6049 1.4030 -0.9560 0
M  V30 26 Pd -4.7744 -1.9107 -3.1145 0
M  V30 27 Pb -3.9827 -2.4523 -3.3896 0
M  V30 28 Pb -5.5700 -1.3897 -2.8007 0
M  V30 29 Pb -4.6792 -2.2285 -2.1733 0
M  V30 30 Pb -4.8356 -1.5593 -4.0533 0
M  V30 31 Pd -5.1095 2.6776 -0.7790 0
M  V30 32 Pb -5.0692 2.6725 0.2235 0
M  V30 33 Pb -5.8343 1.9921 -0.8117 0
M  V30 34 Pb -5.1530 2.7152 -1.7752 0
M  V30 35 Pb -4.3690 3.3478 -0.8349 0
M  V30 36 Pd 1.9868 2.5992 5.4640 0
M  V30 37 Pb 1.8937 3.0250 4.5675 0
M  V30 38 Pb 2.1195 2.0875 6.3105 0
M  V30 39 Pb 2.9309 2.4140 5.1968 0
M  V30 40 Pb 1.0196 2.7260 5.6912 0
M  V30 41 Pd 3.1258 -4.3196 6.4174 0
M  V30 42 Pb 4.1243 -4.3442 6.4507 0
M  V30 43 Pb 2.1344 -4.2200 6.3265 0
M  V30 44 Pb 3.0991 -3.5928 7.1005 0
M  V30 45 Pb 3.1662 -4.9741 5.6609 0
M  V30 46 Ag 3.3280 1.9037 -0.4677 0
M  V30 47 Fe 2.6127 2.6179 1.6817 0
M  V30 48 Ag 1.9262 3.2667 3.8610 0
M  V30 49 Ag 0.7258 -1.3105 -6.4182 0
M  V30 50 Fe 2.4398 -0.8366 -4.8440 0
M  V30 51 Ag 3.9519 -0.2118 -3.1228 0
M  V30 52 Ag -2.2488 3.7737 -6.1208 0
M  V30 53 Fe -3.8203 3.2555 -4.4235 0
M  V30 54 Ag -5.1495 2.7746 -2.5204 0
M  V30 55 Ag -0.8765 4.8072 -4.5829 0
M  V30 56 Fe -2.2841 4.4280 -2.7065 0
M  V30 57 Ag -3.8133 3.8278 -0.9898 0
M  V30 58 Ag 5.8632 -1.3727 2.8537 0
M  V30 59 Fe 4.8609 0.5184 3.8765 0
M  V30 60 Ag 3.6052 2.2364 4.9251 0
M  V30 61 Ag -3.4475 -0.9941 2.9211 0
M  V30 62 Fe -4.0369 -1.7290 0.7426 0
M  V30 63 Ag -4.6163 -2.4198 -1.4530 0
M  V30 64 Ag 2.2414 1.6286 6.8880 0
M  V30 65 Fe 2.6564 -0.6506 7.3954 0
M  V30 66 Ag 3.0464 -2.9859 7.5335 0
M  V30 67 Ag -2.0528 -1.1583 4.7968 0
M  V30 68 Fe -0.3059 -2.6018 5.5171 0
M  V30 69 Ag 1.3991 -4.0829 6.2607 0
M  V30 70 Ag 1.1529 4.2918 -5.8454 0
M  V30 71 Fe 2.7285 3.3049 -4.3732 0
M  V30 72 Ag 4.0377 2.1128 -2.7954 0
M  V30 73 Ba 4.2779 -2.6054 1.2949 0
M  V30 74 Ga 3.9395 -1.5925 0.2741 0
M  V30 75 Ba 3.4718 -0.6636 -0.7751 0
M  V30 76 Ba -3.8494 1.4886 3.3790 0
M  V30 77 Ga -4.4159 2.0581 2.1365 0
M  V30 78 Ba -5.0491 2.7206 0.9749 0
M  V30 79 Ba -1.2816 -2.3942 -5.6043 0
M  V30 80 Ga -2.3263 -2.6421 -4.5977 0
M  V30 81 Ba -3.3883 -2.8539 -3.6010 0
M  V30 82 Ba 4.7208 -4.6211 2.6229 0
M  V30 83 Ga 3.9678 -5.0958 3.8002 0
M  V30 84 Ba 3.2517 -5.4069 5.0529 0
M  V30 85 Ba 6.3171 -3.5117 3.9673 0
M  V30 86 Ga 5.6773 -3.9370 5.2246 0
M  V30 87 Ba 4.8711 -4.3309 6.3933 0
M  V30 88 Ba -2.7235 -0.8423 -6.7818 0
M  V30 89 Ga -3.7925 -1.0675 -5.7812 0
M  V30 90 Ba -4.8422 -1.3017 -4.7625 0
M  V30 91 Ba -0.3406 3.1545 -7.5962 0
M  V30 92 Ga -0.4895 1.6919 -7.7380 0
M  V30 93 Ba -0.6477 0.2267 -7.8383 0
M  V30 94 Ba -2.2283 1.4330 5.1369 0
M  V30 95 Ga -0.9559 2.0973 5.4929 0
M  V30 96 Ba 0.2941 2.7873 5.8782 0
M  V30 97 Ba -6.1521 -1.0331 -2.4852 0
M  V30 98 Ga -6.2902 0.2140 -1.7081 0
M  V30 99 Ba -6.3591 1.4746 -0.9436 0
M  V30 END ATOM
M  V30 BEGIN BOND
M  V30 1 1 1 2
M  V30 2 1 1 3
M  V30 3 1 1 4
M  V30 4 1 1 5
M  V30 5 1 6 7
M  V30 6 1 6 8
M  V30 7 1 6 9
M  V30 8 1 6 10
M  V30 9 1 11 12
M  V30 10 1 11 13
M  V30 11 1 11 14
M  V30 12 1 11 15
M  V30 13 1 16 17
M  V30 14 1 16 18
M  V30 15 1 16 19
M  V30 16 1 16 20
M  V30 17 1 21 22
M  V30 18 1 21 23
M  V30 19 1 21 24
M  V30 20 1 21 25
M  V30 21 1 26 27
M  V30 22 1 26 28
M  V30 23 1 26 29
M  V30 24 1 26 30
M  V30 25 1 31 32
M  V30 26 1 31 33
M  V30 27 1 31 34
M  V30 28 1 31 35
M  V30 29 1 36 37
M  V30 30 1 36 38
M  V30 31 1 36 39
M  V30 32 1 36 40
M  V30 33 1 41 42
M  V30 34 1 41 43
M  V30 35 1 41 44
M  V30 36 1 41 45
M  V30 37 1 46 47
M  V30 38 1 47 48
M  V30 39 1 49 50
M  V30 40 1 50 51
M  V30 41 1 52 53
M  V30 42 1 53 54
M  V30 43 1 55 56
M  V30 44 1 56 57
M  V30 45 1 58 59
M  V30 46 1 59 60
M  V30 47 1 61 62
M  V30 48 1 62 63
M  V30 49 1 64 65
M  V30 50 1 65 66
M  V30 51 1 67 68
M  V30 52 1 68 69
M  V30 53 1 70 71
M  V30 54 1 71 72
M  V30 55 1 73 74
M  V30 56 1 74 75
M  V30 57 1 76 77
M  V30 58 1 77 78
M  V30 59 1 79 80
M  V30 60 1 80 81
M  V30 61 1 82 83
M  V30 62 1 83 84
M  V30 63 1 85 86
M  V30 64 1 86 87
M  V30 65 1 88 89
M  V30 66 1 89 90
M  V30 67 1 91 92
M  V30 68 1 92 93
M  V30 69 1 94 95
M  V30 70 1 95 96
M  V30 71 1 97 98
M  V30 72 1 98 99
M  V30 73 1 2 76
M  V30 74 1 3 67
M  V30 75 1 4 61
M  V30 76 1 5 94
M  V30 77 1 7 73
M  V30 78 1 8 85
M  V30 79 1 9 58
M  V30 80 1 10 82
M  V30 81 1 12 55
M  V30 82 1 13 70
M  V30 83 1 14 91
M  V30 84 1 15 52
M  V30 85 1 17 93
M  V30 86 1 18 79
M  V30 87 1 19 49
M  V30 88 1 20 88
M  V30 89 1 22 75
M  V30 90 1 23 72
M  V30 91 1 24 51
M  V30 92 1 25 46
M  V30 93 1 27 81
M  V30 94 1 28 97
M  V30 95 1 29 63
M  V30 96 1 30 90
M  V30 97 1 32 78
M  V30 98 1 33 99
M  V30 99 1 34 54
M  V30 100 1 35 57
M  V30 101 1 37 48
M  V30 102 1 38 64
M  V30 103 1 39 60
M  V30 104 1 40 96
M  V30 105 1 42 87
M  V30 106 1 43 69
M  V30 107 1 44 66
M  V30 108 1 45 84
M  V30 END BOND
M  V30 END CTAB
M  END

$$$$
