
     RDKit          3D

  0  0  0  0  0  0  0  0  0  0999 V3000
M  V30 BEGIN CTAB
M  V30 COUNTS 99 108 0 0 0
M  V30 BEGIN ATOM
M  V30 1 Pd 3.0598 -1.4793 -3.5200 0
M  V30 2 Pb 3.7952 -1.4725 -2.8367 0
M  V30 3 Pb 3.3776 -0.6294 -3.9409 0
M  V30 4 Pb 2.7582 -2.3750 -3.2030 0
M  V30 5 Pb 2.2840 -1.4677 -4.1518 0
M  V30 6 Pd -2.5995 -5.8160 -0.7955 0
M  V30 7 Pb -2.8807 -5.0441 -1.3608 0
M  V30 8 Pb -3.4509 -5.7024 -0.2666 0
M  V30 9 Pb -1.7119 -5.8511 -1.2457 0
M  V30 10 Pb -2.2802 -6.5216 -0.1664 0
M  V30 11 Pd -4.4276 -2.3639 3.1730 0
M  V30 12 Pb -3.9650 -1.6270 3.6688 0
M  V30 13 Pb -4.8001 -3.1308 2.6327 0
M  V30 14 Pb -4.3017 -3.0053 3.9310 0
M  V30 15 Pb -4.5292 -1.7803 2.3707 0
M  V30 16 Pd 3.7087 -1.0608 2.1462 0
M  V30 17 Pb 3.3432 -2.0199 2.1413 0
M  V30 18 Pb 4.0151 -0.1134 2.2375 0
M  V30 19 Pb 3.3063 -0.8992 3.0332 0
M  V30 20 Pb 4.1799 -1.1902 1.2652 0
M  V30 21 Pd -2.0644 2.2981 1.6509 0
M  V30 22 Pb -2.0901 2.8669 0.8358 0
M  V30 23 Pb -1.8913 3.1339 2.1689 0
M  V30 24 Pb -2.1195 1.7570 2.4933 0
M  V30 25 Pb -2.1649 1.4776 1.0822 0
M  V30 26 Pd -0.3911 -5.2083 4.0008 0
M  V30 27 Pb -0.2428 -4.4925 4.6652 0
M  V30 28 Pb 0.4673 -4.9529 3.4984 0
M  V30 29 Pb -1.2608 -5.3614 4.4674 0
M  V30 30 Pb -0.5648 -5.9757 3.3805 0
M  V30 31 Pd 2.0345 5.8300 -4.4256 0
M  V30 32 Pb 1.5514 6.3676 -3.7029 0
M  V30 33 Pb 1.1922 5.4197 -4.7773 0
M  V30 34 Pb 2.8947 6.2513 -4.1693 0
M  V30 35 Pb 2.5515 5.1666 -4.9591 0
M  V30 36 Pd -1.3467 1.5155 -3.6036 0
M  V30 37 Pb -1.1853 2.1728 -4.3372 0
M  V30 38 Pb -1.5529 0.8933 -2.8428 0
M  V30 39 Pb -1.0262 0.7560 -4.1725 0
M  V30 40 Pb -1.6348 2.2891 -3.0505 0
M  V30 41 Pd 1.8844 6.2082 1.3108 0
M  V30 42 Pb 2.4093 5.6424 1.9430 0
M  V30 43 Pb 2.7582 6.5450 0.9867 0
M  V30 44 Pb 1.4260 6.6398 0.5063 0
M  V30 45 Pb 1.0158 5.9498 1.7456 0
M  V30 46 Ag 3.5767 -0.0219 -4.3345 0
M  V30 47 Fe 3.3217 2.2808 -4.8523 0
M  V30 48 Ag 2.9474 4.5941 -5.2291 0
M  V30 49 Ag 4.1598 0.5953 2.4400 0
M  V30 50 Fe 3.5634 2.8944 2.4039 0
M  V30 51 Ag 2.8783 5.1655 2.2798 0
M  V30 52 Ag 2.9761 -0.8335 3.6866 0
M  V30 53 Fe 1.3853 -2.1104 4.8445 0
M  V30 54 Ag -0.0785 -3.9247 5.1015 0
M  V30 55 Ag -3.1209 -4.3842 -1.6035 0
M  V30 56 Fe -3.9432 -2.5708 -0.3381 0
M  V30 57 Ag -4.5522 -1.5096 1.6790 0
M  V30 58 Ag 3.4984 6.5441 -3.8645 0
M  V30 59 Fe 3.9906 6.9101 -1.6000 0
M  V30 60 Ag 3.3738 6.7873 0.6606 0
M  V30 61 Ag 2.5145 -3.0620 -3.0389 0
M  V30 62 Fe 0.7733 -4.4848 -2.2868 0
M  V30 63 Ag -1.0181 -5.8352 -1.5194 0
M  V30 64 Ba 1.2021 6.7494 -3.1287 0
M  V30 65 Ga 1.1915 6.8096 -1.6258 0
M  V30 66 Ba 1.1094 6.9432 -0.1299 0
M  V30 67 Ba 3.1016 -2.7570 2.1395 0
M  V30 68 Ga 2.0545 -3.7020 2.6656 0
M  V30 69 Ba 1.1066 -4.7922 3.0888 0
M  V30 70 Ba -3.5727 -1.0878 4.0157 0
M  V30 71 Ga -2.8878 0.1454 3.5738 0
M  V30 72 Ba -2.1997 1.3797 3.1399 0
M  V30 73 Ba 1.6825 -1.4478 -4.6004 0
M  V30 74 Ga 0.4518 -0.6319 -4.6125 0
M  V30 75 Ba -0.7708 0.1962 -4.6043 0
M  V30 76 Ba -1.9984 -7.0074 0.3275 0
M  V30 77 Ga -1.3546 -6.8045 1.6391 0
M  V30 78 Ba -0.7137 -6.5721 2.9473 0
M  V30 79 Ba 0.6080 5.1001 -5.1252 0
M  V30 80 Ga -0.2409 3.9038 -4.9705 0
M  V30 81 Ba -1.1085 2.7176 -4.8447 0
M  V30 82 Ba -4.0859 -5.5884 0.1331 0
M  V30 83 Ga -4.5523 -4.6419 1.1814 0
M  V30 84 Ba -5.0628 -3.7184 2.2297 0
M  V30 85 Ba -1.7345 3.7863 2.5015 0
M  V30 86 Ga -0.6619 4.7848 2.3066 0
M  V30 87 Ba 0.3894 5.8112 2.1444 0
M  V30 88 Ba 4.3377 -1.4776 -2.3132 0
M  V30 89 Ga 4.4165 -1.3730 -0.8366 0
M  V30 90 Ba 4.5868 -1.2775 0.6327 0
M  V30 91 Ba -2.2033 0.8757 0.6303 0
M  V30 92 Ga -1.9706 0.6559 -0.8155 0
M  V30 93 Ba -1.7354 0.4471 -2.2625 0
M  V30 94 Ba -2.1442 3.3094 0.2395 0
M  V30 95 Ga -1.9875 3.1098 -1.2048 0
M  V30 96 Ba -1.8241 2.8827 -2.6444 0
M  V30 97 Ba -4.2013 -3.5460 4.4428 0
M  V30 98 Ga -3.0869 -4.4848 4.6757 0
M  V30 99 Ba -1.9177 -5.3720 4.8274 0
M  V30 END ATOM
M  V30 BEGIN BOND
M  V30 1 1 1 2
M  V30 2 1 1 3
M  V30 3 1 1 4
M  V30 4 1 1 5
M  V30 5 1 6 7
M  V30 6 1 6 8
M  V30 7 1 6 9
M  V30 8 1 6 10
M  V30 9 1 11 12
M  V30 10 1 11 13
M  V30 11 1 11 14
M  V30 12 1 11 15
M  V30 13 1 16 17
M  V30 14 1 16 18
M  V30 15 1 16 19
M  V30 16 1 16 20
M  V30 17 1 21 22
M  V30 18 1 21 23
M  V30 19 1 21 24
M  V30 20 1 21 25
M  V30 21 1 26 27
M  V30 22 1 26 28
M  V30 23 1 26 29
M  V30 24 1 26 30
M  V30 25 1 31 32
M  V30 26 1 31 33
M  V30 27 1 31 34
M  V30 28 1 31 35
M  V30 29 1 36 37
M  V30 30 1 36 38
M  V30 31 1 36 39
M  V30 32 1 36 40
M  V30 33 1 41 42
M  V30 34 1 41 43
M  V30 35 1 41 44
M  V30 36 1 41 45
M  V30 37 1 46 47
M  V30 38 1 47 48
M  V30 39 1 49 50
M  V30 40 1 50 51
M  V30 41 1 52 53
M  V30 42 1 53 54
M  V30 43 1 55 56
M  V30 44 1 56 57
M  V30 45 1 58 59
M  V30 46 1 59 60
M  V30 47 1 61 62
M  V30 48 1 62 63
M  V30 49 1 64 65
M  V30 50 1 65 66
M  V30 51 1 67 68
M  V30 52 1 68 69
M  V30 53 1 70 71
M  V30 54 1 71 72
M  V30 55 1 73 74
M  V30 56 1 74 75
M  V30 57 1 76 77
M  V30 58 1 77 78
M  V30 59 1 79 80
M  V30 60 1 80 81
M  V30 61 1 82 83
M  V30 62 1 83 84
M  V30 63 1 85 86
M  V30 64 1 86 87
M  V30 65 1 88 89
M  V30 66 1 89 90
M  V30 67 1 91 92
M  V30 68 1 92 93
M  V30 69 1 94 95
M  V30 70 1 95 96
M  V30 71 1 97 98
M  V30 72 1 98 99
M  V30 73 1 2 88
M  V30 74 1 3 46
M  V30 75 1 4 61
M  V30 76 1 5 73
M  V30 77 1 7 55
M  V30 78 1 8 82
M  V30 79 1 9 63
M  V30 80 1 10 76
M  V30 81 1 12 70
M  V30 82 1 13 84
M  V30 83 1 14 97
M  V30 84 1 15 57
M  V30 85 1 17 67
M  V30 86 1 18 49
M  V30 87 1 19 52
M  V30 88 1 20 90
M  V30 89 1 22 94
M  V30 90 1 23 85
M  V30 91 1 24 72
M  V30 92 1 25 91
M  V30 93 1 27 54
M  V30 94 1 28 69
M  V30 95 1 29 99
M  V30 96 1 30 78
M  V30 97 1 32 64
M  V30 98 1 33 79
M  V30 99 1 34 58
M  V30 100 1 35 48
M  V30 101 1 37 81
M  V30 102 1 38 93
M  V30 103 1 39 75
M  V30 104 1 40 96
M  V30 105 1 42 51
M  V30 106 1 43 60
M  V30 107 1 44 66
M  V30 108 1 45 87
M  V30 END BOND
M  V30 END CTAB
M  END

$$$$
