
     RDKit          3D

  0  0  0  0  0  0  0  0  0  0999 V3000
M  V30 BEGIN CTAB
M  V30 COUNTS 99 108 0 0 0
M  V30 BEGIN ATOM
M  V30 1 Pd -0.9699 -1.7458 -5.0373 0
M  V30 2 Pb -0.1459 -1.5447 -5.5719 0
M  V30 3 Pb -1.5721 -1.6171 -5.8276 0
M  V30 4 Pb -1.7706 -1.9319 -4.4797 0
M  V30 5 Pb -0.3709 -1.9050 -4.2323 0
M  V30 6 Pd 2.4237 1.7964 -3.9966 0
M  V30 7 Pb 2.1866 2.4214 -3.2494 0
M  V30 8 Pb 3.2260 1.4761 -3.4888 0
M  V30 9 Pb 2.5693 1.1181 -4.7170 0
M  V30 10 Pb 1.7054 2.1699 -4.5815 0
M  V30 11 Pd -7.0980 4.3637 -0.6501 0
M  V30 12 Pb -7.0001 4.9089 -1.4768 0
M  V30 13 Pb -7.1017 3.7759 0.1569 0
M  V30 14 Pb -7.4952 3.6482 -1.2304 0
M  V30 15 Pb -6.5788 5.0384 -0.1271 0
M  V30 16 Pd -2.8475 3.1087 1.3972 0
M  V30 17 Pb -3.1859 4.0506 1.3888 0
M  V30 18 Pb -1.9705 3.3927 1.0002 0
M  V30 19 Pb -2.5526 2.1539 1.4044 0
M  V30 20 Pb -3.7392 2.8233 1.7515 0
M  V30 21 Pd 5.4899 -0.4390 8.1238 0
M  V30 22 Pb 5.9465 0.2541 7.5638 0
M  V30 23 Pb 4.6359 0.0782 8.1430 0
M  V30 24 Pb 6.2565 -1.0407 7.9189 0
M  V30 25 Pb 4.9840 -1.1989 8.5285 0
M  V30 26 Pd -0.1656 -3.0984 5.2384 0
M  V30 27 Pb 0.2956 -3.4601 6.0480 0
M  V30 28 Pb -0.5607 -2.6971 4.4130 0
M  V30 29 Pb -0.2043 -4.0035 4.8126 0
M  V30 30 Pb -0.0549 -2.1938 5.6535 0
M  V30 31 Pd 7.2483 -1.4232 1.5469 0
M  V30 32 Pb 7.4514 -0.5771 2.0416 0
M  V30 33 Pb 7.5371 -1.9025 2.3747 0
M  V30 34 Pb 6.9142 -2.2747 1.1460 0
M  V30 35 Pb 6.9834 -0.9271 0.7185 0
M  V30 36 Pd 0.5377 -4.4676 0.2348 0
M  V30 37 Pb 0.3912 -5.0441 1.0398 0
M  V30 38 Pb 1.5222 -4.6488 0.2438 0
M  V30 39 Pb 0.6822 -3.8441 -0.5551 0
M  V30 40 Pb -0.4393 -4.2932 0.1949 0
M  V30 41 Pd -4.6544 1.9622 -6.7563 0
M  V30 42 Pb -5.4972 1.6344 -6.3257 0
M  V30 43 Pb -4.3634 1.0470 -7.0397 0
M  V30 44 Pb -3.7623 2.3171 -7.0187 0
M  V30 45 Pb -4.9327 2.8770 -6.4758 0
M  V30 46 Ag 3.8754 1.2848 -3.1608 0
M  V30 47 Fe 5.2702 0.3323 -1.4886 0
M  V30 48 Ag 6.8108 -0.5651 0.0834 0
M  V30 49 Ag 1.9701 2.8525 -2.6716 0
M  V30 50 Fe 0.3441 3.2564 -0.9828 0
M  V30 51 Ag -1.3202 3.6015 0.6814 0
M  V30 52 Ag 6.7604 -1.4857 7.5966 0
M  V30 53 Fe 7.4145 -1.9895 5.3740 0
M  V30 54 Ag 7.7528 -2.1833 3.0347 0
M  V30 55 Ag -2.3710 1.4270 1.4168 0
M  V30 56 Fe -1.5950 -0.4804 2.5987 0
M  V30 57 Ag -0.8188 -2.3870 3.7816 0
M  V30 58 Ag -2.2796 -2.1099 -3.9724 0
M  V30 59 Fe -2.1449 -3.1164 -1.8458 0
M  V30 60 Ag -1.1411 -4.1207 0.0350 0
M  V30 61 Ag 3.9376 0.3343 8.0563 0
M  V30 62 Fe 1.9133 -0.4292 7.0768 0
M  V30 63 Ag 0.1172 -1.5495 5.9994 0
M  V30 64 Ag 6.5770 -2.8960 0.8983 0
M  V30 65 Fe 4.4556 -3.8972 0.5264 0
M  V30 66 Ag 2.2646 -4.7587 0.2108 0
M  V30 67 Ag 4.5338 -1.7700 8.7051 0
M  V30 68 Fe 2.6064 -2.8520 7.8413 0
M  V30 69 Ag 0.7023 -3.6261 6.6548 0
M  V30 70 Ag 1.2265 2.4311 -5.0953 0
M  V30 71 Fe -0.9046 2.5347 -6.1328 0
M  V30 72 Ag -3.0704 2.5829 -7.0994 0
M  V30 73 Ag -7.7030 3.1348 -1.7415 0
M  V30 74 Fe -7.0407 2.1964 -3.8251 0
M  V30 75 Ag -6.0920 1.4885 -5.8887 0
M  V30 76 Ag -6.8694 5.2143 -2.1430 0
M  V30 77 Fe -6.0390 4.5656 -4.2639 0
M  V30 78 Ag -5.1698 3.5325 -6.2099 0
M  V30 79 Ag 6.2910 0.6727 7.0434 0
M  V30 80 Fe 6.9938 0.5295 4.7773 0
M  V30 81 Ag 7.5291 -0.0069 2.5245 0
M  V30 82 Ba -6.1142 5.4909 0.2483 0
M  V30 83 Ga -4.7994 5.1772 0.8392 0
M  V30 84 Ba -3.5034 4.7311 1.3851 0
M  V30 85 Ba -7.0127 3.3468 0.7635 0
M  V30 86 Ga -5.7543 2.9496 1.4212 0
M  V30 87 Ba -4.4277 2.6276 1.9786 0
M  V30 88 Ba -0.2030 -4.6713 4.4691 0
M  V30 89 Ga 0.0233 -5.0842 3.0697 0
M  V30 90 Ba 0.2557 -5.4487 1.6579 0
M  V30 91 Ba 0.1282 -1.9907 -3.6587 0
M  V30 92 Ga 0.3978 -2.7246 -2.3868 0
M  V30 93 Ba 0.8560 -3.3432 -1.1076 0
M  V30 94 Ba 0.5043 -1.3902 -5.9187 0
M  V30 95 Ga 1.5722 -0.4101 -5.6308 0
M  V30 96 Ba 2.5825 0.6041 -5.2638 0
M  V30 97 Ba -2.0544 -1.5520 -6.4009 0
M  V30 98 Ga -3.0801 -0.5788 -6.8292 0
M  V30 99 Ba -4.1109 0.3802 -7.2770 0
M  V30 END ATOM
M  V30 BEGIN BOND
M  V30 1 1 1 2
M  V30 2 1 1 3
M  V30 3 1 1 4
M  V30 4 1 1 5
M  V30 5 1 6 7
M  V30 6 1 6 8
M  V30 7 1 6 9
M  V30 8 1 6 10
M  V30 9 1 11 12
M  V30 10 1 11 13
M  V30 11 1 11 14
M  V30 12 1 11 15
M  V30 13 1 16 17
M  V30 14 1 16 18
M  V30 15 1 16 19
M  V30 16 1 16 20
M  V30 17 1 21 22
M  V30 18 1 21 23
M  V30 19 1 21 24
M  V30 20 1 21 25
M  V30 21 1 26 27
M  V30 22 1 26 28
M  V30 23 1 26 29
M  V30 24 1 26 30
M  V30 25 1 31 32
M  V30 26 1 31 33
M  V30 27 1 31 34
M  V30 28 1 31 35
M  V30 29 1 36 37
M  V30 30 1 36 38
M  V30 31 1 36 39
M  V30 32 1 36 40
M  V30 33 1 41 42
M  V30 34 1 41 43
M  V30 35 1 41 44
M  V30 36 1 41 45
M  V30 37 1 46 47
M  V30 38 1 47 48
M  V30 39 1 49 50
M  V30 40 1 50 51
M  V30 41 1 52 53
M  V30 42 1 53 54
M  V30 43 1 55 56
M  V30 44 1 56 57
M  V30 45 1 58 59
M  V30 46 1 59 60
M  V30 47 1 61 62
M  V30 48 1 62 63
M  V30 49 1 64 65
M  V30 50 1 65 66
M  V30 51 1 67 68
M  V30 52 1 68 69
M  V30 53 1 70 71
M  V30 54 1 71 72
M  V30 55 1 73 74
M  V30 56 1 74 75
M  V30 57 1 76 77
M  V30 58 1 77 78
M  V30 59 1 79 80
M  V30 60 1 80 81
M  V30 61 1 82 83
M  V30 62 1 83 84
M  V30 63 1 85 86
M  V30 64 1 86 87
M  V30 65 1 88 89
M  V30 66 1 89 90
M  V30 67 1 91 92
M  V30 68 1 92 93
M  V30 69 1 94 95
M  V30 70 1 95 96
M  V30 71 1 97 98
M  V30 72 1 98 99
M  V30 73 1 2 94
M  V30 74 1 3 97
M  V30 75 1 4 58
M  V30 76 1 5 91
M  V30 77 1 7 49
M  V30 78 1 8 46
M  V30 79 1 9 96
M  V30 80 1 10 70
M  V30 81 1 12 76
M  V30 82 1 13 85
M  V30 83 1 14 73
M  V30 84 1 15 82
M  V30 85 1 17 84
M  V30 86 1 18 51
M  V30 87 1 19 55
M  V30 88 1 20 87
M  V30 89 1 22 79
M  V30 90 1 23 61
M  V30 91 1 24 52
M  V30 92 1 25 67
M  V30 93 1 27 69
M  V30 94 1 28 57
M  V30 95 1 29 88
M  V30 96 1 30 63
M  V30 97 1 32 81
M  V30 98 1 33 54
M  V30 99 1 34 64
M  V30 100 1 35 48
M  V30 101 1 37 90
M  V30 102 1 38 66
M  V30 103 1 39 93
M  V30 104 1 40 60
M  V30 105 1 42 75
M  V30 106 1 43 99
M  V30 107 1 44 72
M  V30 108 1 45 78
M  V30 END BOND
M  V30 END CTAB
M  END

$$$$
