
     RDKit          3D

  0  0  0  0  0  0  0  0  0  0999 V3000
M  V30 BEGIN CTAB
M  V30 COUNTS 99 108 0 0 0
M  V30 BEGIN ATOM
M  V30 1 Pd 5.3092 2.4588 1.6544 0
M  V30 2 Pb 4.8851 2.8764 2.4599 0
M  V30 3 Pb 5.6575 2.1143 0.7834 0
M  V30 4 Pb 6.0071 3.1766 1.6128 0
M  V30 5 Pb 4.6736 1.6889 1.7346 0
M  V30 6 Pd 6.3658 5.5565 -2.0630 0
M  V30 7 Pb 6.3176 6.5468 -1.9679 0
M  V30 8 Pb 7.0041 5.5061 -1.3003 0
M  V30 9 Pb 6.4016 4.5573 -2.1253 0
M  V30 10 Pb 5.5850 5.6022 -2.7033 0
M  V30 11 Pd -0.2431 -4.5695 1.9127 0
M  V30 12 Pb -0.8836 -4.1244 2.5399 0
M  V30 13 Pb 0.4538 -4.9152 1.2879 0
M  V30 14 Pb -0.7579 -5.4298 1.8440 0
M  V30 15 Pb 0.3114 -3.7470 1.9972 0
M  V30 16 Pd -5.1802 -7.5225 0.6030 0
M  V30 17 Pb -6.1508 -7.4952 0.3847 0
M  V30 18 Pb -5.4132 -7.1508 1.4938 0
M  V30 19 Pb -4.9690 -7.5797 -0.3847 0
M  V30 20 Pb -4.2104 -7.5661 0.8566 0
M  V30 21 Pd 0.3371 3.1445 2.2346 0
M  V30 22 Pb -0.3258 2.7803 1.5762 0
M  V30 23 Pb -0.0844 4.0499 2.1582 0
M  V30 24 Pb 0.7704 2.2495 2.2799 0
M  V30 25 Pb 1.0422 3.4825 2.8611 0
M  V30 26 Pd 0.8464 6.4774 -1.5564 0
M  V30 27 Pb 1.2003 7.4045 -1.4715 0
M  V30 28 Pb 0.5170 5.5378 -1.6284 0
M  V30 29 Pb 1.5299 6.3004 -2.2840 0
M  V30 30 Pb 0.2408 6.6120 -0.7729 0
M  V30 31 Pd -3.9299 -0.7614 1.2563 0
M  V30 32 Pb -3.2999 -0.0596 0.9108 0
M  V30 33 Pb -4.4984 -0.5759 0.4474 0
M  V30 34 Pb -3.3616 -1.0246 2.0367 0
M  V30 35 Pb -4.5489 -1.4481 1.6367 0
M  V30 36 Pd 1.7962 -1.3675 -1.0270 0
M  V30 37 Pb 1.2936 -1.6860 -1.8264 0
M  V30 38 Pb 2.1530 -2.2956 -0.9083 0
M  V30 39 Pb 2.2271 -1.0670 -0.1745 0
M  V30 40 Pb 1.3627 -0.4756 -1.1524 0
M  V30 41 Pd -5.2331 -3.5188 -3.1270 0
M  V30 42 Pb -5.0664 -4.5231 -3.1432 0
M  V30 43 Pb -6.2054 -3.6849 -2.9963 0
M  V30 44 Pb -5.3846 -2.5476 -2.9330 0
M  V30 45 Pb -4.2700 -3.3522 -3.3333 0
M  V30 46 Ag 0.8610 -1.9283 -2.3846 0
M  V30 47 Fe -1.3353 -2.5893 -2.9911 0
M  V30 48 Ag -3.5548 -3.2367 -3.5236 0
M  V30 49 Ag 6.1170 7.2556 -1.8799 0
M  V30 50 Fe 3.9668 8.1793 -1.6077 0
M  V30 51 Ag 1.6231 8.0126 -1.4366 0
M  V30 52 Ag 0.2719 4.8318 -1.6657 0
M  V30 53 Fe 0.6753 2.5014 -1.4597 0
M  V30 54 Ag 0.9745 0.1533 -1.2795 0
M  V30 55 Ag 0.7353 -3.1385 2.0745 0
M  V30 56 Fe 0.9288 -0.7794 2.1897 0
M  V30 57 Ag 1.1005 1.5815 2.3018 0
M  V30 58 Ag -6.8348 -7.3392 0.1497 0
M  V30 59 Fe -7.4894 -5.6742 -1.3739 0
M  V30 60 Ag -6.8830 -3.9313 -2.8290 0
M  V30 61 Ag -5.6055 -6.6634 2.0212 0
M  V30 62 Fe -5.3572 -4.3125 2.2059 0
M  V30 63 Ag -4.9090 -1.9914 2.0086 0
M  V30 64 Ba -1.0632 -6.1176 1.7854 0
M  V30 65 Ga -2.3159 -6.8142 1.4172 0
M  V30 66 Ba -3.4947 -7.6426 1.0786 0
M  V30 67 Ba 4.9683 5.6521 -3.1475 0
M  V30 68 Ga 3.5112 5.9089 -2.9560 0
M  V30 69 Ba 2.0461 6.1601 -2.8294 0
M  V30 70 Ba 5.8953 1.9364 0.0952 0
M  V30 71 Ga 6.1831 2.8245 -1.0480 0
M  V30 72 Ba 6.4414 3.8067 -2.1192 0
M  V30 73 Ba -4.8777 -0.4160 -0.1870 0
M  V30 74 Ga -5.1996 -1.1227 -1.4487 0
M  V30 75 Ba -5.5160 -1.8426 -2.7043 0
M  V30 76 Ba -4.8447 -7.5179 -1.1363 0
M  V30 77 Ga -4.8911 -6.3878 -2.1179 0
M  V30 78 Ba -4.9296 -5.2792 -3.1241 0
M  V30 79 Ba 6.5689 3.6739 1.5577 0
M  V30 80 Ga 7.0251 4.5726 0.4818 0
M  V30 81 Ba 7.3812 5.4331 -0.6606 0
M  V30 82 Ba -0.4026 4.7239 2.0626 0
M  V30 83 Ga -0.3189 5.7204 0.9771 0
M  V30 84 Ba -0.1758 6.6604 -0.1517 0
M  V30 85 Ba 4.2294 1.0950 1.8559 0
M  V30 86 Ga 3.3768 0.1417 1.1175 0
M  V30 87 Ba 2.4983 -0.8711 0.4983 0
M  V30 88 Ba -1.2657 -3.6784 3.0101 0
M  V30 89 Ga -2.1489 -2.5054 2.8335 0
M  V30 90 Ba -3.0313 -1.3352 2.6367 0
M  V30 91 Ba -0.7861 2.5091 1.0461 0
M  V30 92 Ga -1.8316 1.4749 0.8844 0
M  V30 93 Ba -2.8860 0.4812 0.5864 0
M  V30 94 Ba 4.5112 3.2090 3.0209 0
M  V30 95 Ga 3.0680 3.4682 3.2073 0
M  V30 96 Ba 1.6094 3.6843 3.3120 0
M  V30 97 Ba 1.0229 -5.0601 0.8246 0
M  V30 98 Ga 1.7371 -4.0946 -0.0312 0
M  V30 99 Ba 2.3485 -3.0171 -0.8313 0
M  V30 END ATOM
M  V30 BEGIN BOND
M  V30 1 1 1 2
M  V30 2 1 1 3
M  V30 3 1 1 4
M  V30 4 1 1 5
M  V30 5 1 6 7
M  V30 6 1 6 8
M  V30 7 1 6 9
M  V30 8 1 6 10
M  V30 9 1 11 12
M  V30 10 1 11 13
M  V30 11 1 11 14
M  V30 12 1 11 15
M  V30 13 1 16 17
M  V30 14 1 16 18
M  V30 15 1 16 19
M  V30 16 1 16 20
M  V30 17 1 21 22
M  V30 18 1 21 23
M  V30 19 1 21 24
M  V30 20 1 21 25
M  V30 21 1 26 27
M  V30 22 1 26 28
M  V30 23 1 26 29
M  V30 24 1 26 30
M  V30 25 1 31 32
M  V30 26 1 31 33
M  V30 27 1 31 34
M  V30 28 1 31 35
M  V30 29 1 36 37
M  V30 30 1 36 38
M  V30 31 1 36 39
M  V30 32 1 36 40
M  V30 33 1 41 42
M  V30 34 1 41 43
M  V30 35 1 41 44
M  V30 36 1 41 45
M  V30 37 1 46 47
M  V30 38 1 47 48
M  V30 39 1 49 50
M  V30 40 1 50 51
M  V30 41 1 52 53
M  V30 42 1 53 54
M  V30 43 1 55 56
M  V30 44 1 56 57
M  V30 45 1 58 59
M  V30 46 1 59 60
M  V30 47 1 61 62
M  V30 48 1 62 63
M  V30 49 1 64 65
M  V30 50 1 65 66
M  V30 51 1 67 68
M  V30 52 1 68 69
M  V30 53 1 70 71
M  V30 54 1 71 72
M  V30 55 1 73 74
M  V30 56 1 74 75
M  V30 57 1 76 77
M  V30 58 1 77 78
M  V30 59 1 79 80
M  V30 60 1 80 81
M  V30 61 1 82 83
M  V30 62 1 83 84
M  V30 63 1 85 86
M  V30 64 1 86 87
M  V30 65 1 88 89
M  V30 66 1 89 90
M  V30 67 1 91 92
M  V30 68 1 92 93
M  V30 69 1 94 95
M  V30 70 1 95 96
M  V30 71 1 97 98
M  V30 72 1 98 99
M  V30 73 1 2 94
M  V30 74 1 3 70
M  V30 75 1 4 79
M  V30 76 1 5 85
M  V30 77 1 7 49
M  V30 78 1 8 81
M  V30 79 1 9 72
M  V30 80 1 10 67
M  V30 81 1 12 88
M  V30 82 1 13 97
M  V30 83 1 14 64
M  V30 84 1 15 55
M  V30 85 1 17 58
M  V30 86 1 18 61
M  V30 87 1 19 76
M  V30 88 1 20 66
M  V30 89 1 22 91
M  V30 90 1 23 82
M  V30 91 1 24 57
M  V30 92 1 25 96
M  V30 93 1 27 51
M  V30 94 1 28 52
M  V30 95 1 29 69
M  V30 96 1 30 84
M  V30 97 1 32 93
M  V30 98 1 33 73
M  V30 99 1 34 90
M  V30 100 1 35 63
M  V30 101 1 37 46
M  V30 102 1 38 99
M  V30 103 1 39 87
M  V30 104 1 40 54
M  V30 105 1 42 78
M  V30 106 1 43 60
M  V30 107 1 44 75
M  V30 108 1 45 48
M  V30 END BOND
M  V30 END CTAB
M  END

$$$$
