
     RDKit          3D

  0  0  0  0  0  0  0  0  0  0999 V3000
M  V30 BEGIN CTAB
M  V30 COUNTS 99 108 0 0 0
M  V30 BEGIN ATOM
M  V30 1 Pd -0.4534 -7.2954 -0.9951 0
M  V30 2 Pb -0.5579 -7.1449 -0.0116 0
M  V30 3 Pb 0.3827 -6.7455 -1.0266 0
M  V30 4 Pb -0.3500 -7.4344 -1.9767 0
M  V30 5 Pb -1.4082 -7.5956 -1.1010 0
M  V30 6 Pd -3.5752 4.1927 2.3280 0
M  V30 7 Pb -4.1844 3.4981 2.6895 0
M  V30 8 Pb -2.9962 4.9272 1.9630 0
M  V30 9 Pb -3.0541 4.1805 3.2040 0
M  V30 10 Pb -4.1073 4.1591 1.4809 0
M  V30 11 Pd -3.0235 -4.6741 -3.9677 0
M  V30 12 Pb -3.5137 -5.4471 -3.5482 0
M  V30 13 Pb -3.6605 -4.0098 -3.5767 0
M  V30 14 Pb -2.3876 -5.3423 -4.3449 0
M  V30 15 Pb -2.3368 -3.9714 -4.1599 0
M  V30 16 Pd 2.4905 2.9097 -5.7129 0
M  V30 17 Pb 3.3407 2.4504 -5.4390 0
M  V30 18 Pb 1.6223 3.3304 -5.9543 0
M  V30 19 Pb 2.0719 2.0294 -5.9514 0
M  V30 20 Pb 2.7646 3.8109 -5.3717 0
M  V30 21 Pd 5.8202 0.3776 0.1680 0
M  V30 22 Pb 5.5870 -0.5733 0.3675 0
M  V30 23 Pb 6.0780 1.3187 0.0015 0
M  V30 24 Pb 6.1132 0.1739 -0.7643 0
M  V30 25 Pb 5.3415 0.7063 0.9911 0
M  V30 26 Pd 1.7623 6.0719 0.5772 0
M  V30 27 Pb 1.7658 6.5506 -0.2994 0
M  V30 28 Pb 0.7833 6.2366 0.7307 0
M  V30 29 Pb 1.8675 5.4234 1.3384 0
M  V30 30 Pb 2.7332 5.9587 0.4180 0
M  V30 31 Pd -4.1150 0.7804 -4.3073 0
M  V30 32 Pb -3.4018 0.2723 -4.7977 0
M  V30 33 Pb -3.7782 1.5949 -4.7684 0
M  V30 34 Pb -4.7047 1.3588 -3.7458 0
M  V30 35 Pb -4.4491 -0.0379 -3.8385 0
M  V30 36 Pd 2.1055 -3.5761 5.1865 0
M  V30 37 Pb 2.6966 -3.7919 4.4120 0
M  V30 38 Pb 2.7628 -2.8915 5.4856 0
M  V30 39 Pb 1.4379 -4.2452 4.8603 0
M  V30 40 Pb 1.4772 -3.2592 5.9160 0
M  V30 41 Pd -1.0265 1.0334 6.7625 0
M  V30 42 Pb -0.7509 0.1013 7.0546 0
M  V30 43 Pb -0.0836 1.3323 6.8703 0
M  V30 44 Pb -1.2864 1.9414 6.3798 0
M  V30 45 Pb -1.9607 0.7164 6.6555 0
M  V30 46 Ag 5.4185 -1.2754 0.5667 0
M  V30 47 Fe 4.3037 -2.6657 2.1339 0
M  V30 48 Ag 3.1232 -3.8709 3.8029 0
M  V30 49 Ag 1.6464 1.4186 -6.0734 0
M  V30 50 Fe -0.5412 0.5641 -5.6822 0
M  V30 51 Ag -2.7890 -0.0034 -5.1406 0
M  V30 52 Ag -0.6227 -7.0256 0.7264 0
M  V30 53 Fe 0.1361 -5.9011 2.6760 0
M  V30 54 Ag 0.9480 -4.7403 4.5824 0
M  V30 55 Ag 0.9358 3.5851 -6.0846 0
M  V30 56 Fe -1.3329 3.0400 -5.6896 0
M  V30 57 Ag -3.4572 2.1721 -5.1111 0
M  V30 58 Ag 0.8163 -6.1757 -1.2420 0
M  V30 59 Fe 0.0590 -4.5097 -2.7428 0
M  V30 60 Ag -1.6698 -3.6384 -4.1042 0
M  V30 61 Ag 4.9109 1.0486 1.5141 0
M  V30 62 Fe 3.4596 2.9187 1.8180 0
M  V30 63 Ag 2.0766 4.8634 1.8043 0
M  V30 64 Ag -4.5320 4.0733 0.8673 0
M  V30 65 Fe -4.8668 2.9942 -1.2221 0
M  V30 66 Ag -5.0539 1.8393 -3.2893 0
M  V30 67 Ag 3.1273 -2.2898 5.7193 0
M  V30 68 Fe 2.3293 -0.1877 6.4235 0
M  V30 69 Ag 0.6535 1.3947 6.9119 0
M  V30 70 Ag -4.5620 2.9647 3.0346 0
M  V30 71 Fe -4.0336 1.5053 4.8030 0
M  V30 72 Ag -2.6583 0.5672 6.4653 0
M  V30 73 Ag 2.8016 4.5035 -5.0783 0
M  V30 74 Fe 2.3888 5.7827 -3.1167 0
M  V30 75 Ag 1.9176 6.7641 -1.0027 0
M  V30 76 Ag 3.9446 2.0532 -5.2226 0
M  V30 77 Fe 5.1747 1.0531 -3.4499 0
M  V30 78 Ag 6.2174 0.1647 -1.5064 0
M  V30 79 Ag 6.1982 2.0427 -0.0826 0
M  V30 80 Fe 5.0092 4.0766 0.0467 0
M  V30 81 Ag 3.4480 5.8309 0.2779 0
M  V30 82 Ba -2.1379 -7.7045 -1.2800 0
M  V30 83 Ga -3.0010 -6.9205 -2.2088 0
M  V30 84 Ba -3.7534 -6.0550 -3.1612 0
M  V30 85 Ba -2.6111 5.5139 1.6880 0
M  V30 86 Ga -1.2446 5.9003 1.2712 0
M  V30 87 Ba 0.0602 6.4325 0.8193 0
M  V30 88 Ba 1.0158 -3.0055 6.4692 0
M  V30 89 Ga 0.2429 -1.7790 6.8261 0
M  V30 90 Ba -0.5635 -0.6060 7.2767 0
M  V30 91 Ba -0.3127 -7.4917 -2.7199 0
M  V30 92 Ga -1.0632 -6.7219 -3.7197 0
M  V30 93 Ba -1.8980 -5.8603 -4.5659 0
M  V30 94 Ba -2.6814 4.2067 3.8759 0
M  V30 95 Ga -2.0872 3.3479 4.9490 0
M  V30 96 Ba -1.4494 2.6401 6.1042 0
M  V30 97 Ba -4.1465 -3.5233 -3.2776 0
M  V30 98 Ga -4.4153 -2.0770 -3.3894 0
M  V30 99 Ba -4.7173 -0.6354 -3.4721 0
M  V30 END ATOM
M  V30 BEGIN BOND
M  V30 1 1 1 2
M  V30 2 1 1 3
M  V30 3 1 1 4
M  V30 4 1 1 5
M  V30 5 1 6 7
M  V30 6 1 6 8
M  V30 7 1 6 9
M  V30 8 1 6 10
M  V30 9 1 11 12
M  V30 10 1 11 13
M  V30 11 1 11 14
M  V30 12 1 11 15
M  V30 13 1 16 17
M  V30 14 1 16 18
M  V30 15 1 16 19
M  V30 16 1 16 20
M  V30 17 1 21 22
M  V30 18 1 21 23
M  V30 19 1 21 24
M  V30 20 1 21 25
M  V30 21 1 26 27
M  V30 22 1 26 28
M  V30 23 1 26 29
M  V30 24 1 26 30
M  V30 25 1 31 32
M  V30 26 1 31 33
M  V30 27 1 31 34
M  V30 28 1 31 35
M  V30 29 1 36 37
M  V30 30 1 36 38
M  V30 31 1 36 39
M  V30 32 1 36 40
M  V30 33 1 41 42
M  V30 34 1 41 43
M  V30 35 1 41 44
M  V30 36 1 41 45
M  V30 37 1 46 47
M  V30 38 1 47 48
M  V30 39 1 49 50
M  V30 40 1 50 51
M  V30 41 1 52 53
M  V30 42 1 53 54
M  V30 43 1 55 56
M  V30 44 1 56 57
M  V30 45 1 58 59
M  V30 46 1 59 60
M  V30 47 1 61 62
M  V30 48 1 62 63
M  V30 49 1 64 65
M  V30 50 1 65 66
M  V30 51 1 67 68
M  V30 52 1 68 69
M  V30 53 1 70 71
M  V30 54 1 71 72
M  V30 55 1 73 74
M  V30 56 1 74 75
M  V30 57 1 76 77
M  V30 58 1 77 78
M  V30 59 1 79 80
M  V30 60 1 80 81
M  V30 61 1 82 83
M  V30 62 1 83 84
M  V30 63 1 85 86
M  V30 64 1 86 87
M  V30 65 1 88 89
M  V30 66 1 89 90
M  V30 67 1 91 92
M  V30 68 1 92 93
M  V30 69 1 94 95
M  V30 70 1 95 96
M  V30 71 1 97 98
M  V30 72 1 98 99
M  V30 73 1 2 52
M  V30 74 1 3 58
M  V30 75 1 4 91
M  V30 76 1 5 82
M  V30 77 1 7 70
M  V30 78 1 8 85
M  V30 79 1 9 94
M  V30 80 1 10 64
M  V30 81 1 12 84
M  V30 82 1 13 97
M  V30 83 1 14 93
M  V30 84 1 15 60
M  V30 85 1 17 76
M  V30 86 1 18 55
M  V30 87 1 19 49
M  V30 88 1 20 73
M  V30 89 1 22 46
M  V30 90 1 23 79
M  V30 91 1 24 78
M  V30 92 1 25 61
M  V30 93 1 27 75
M  V30 94 1 28 87
M  V30 95 1 29 63
M  V30 96 1 30 81
M  V30 97 1 32 51
M  V30 98 1 33 57
M  V30 99 1 34 66
M  V30 100 1 35 99
M  V30 101 1 37 48
M  V30 102 1 38 67
M  V30 103 1 39 54
M  V30 104 1 40 88
M  V30 105 1 42 90
M  V30 106 1 43 69
M  V30 107 1 44 96
M  V30 108 1 45 72
M  V30 END BOND
M  V30 END CTAB
M  END

$$$$
