
     RDKit          3D

  0  0  0  0  0  0  0  0  0  0999 V3000
M  V30 BEGIN CTAB
M  V30 COUNTS 99 108 0 0 0
M  V30 BEGIN ATOM
M  V30 1 Pd -1.6237 0.7756 -3.6459 0
M  V30 2 Pb -1.6559 -0.2171 -3.7449 0
M  V30 3 Pb -2.3957 0.8762 -4.2748 0
M  V30 4 Pb -0.8615 0.6566 -3.0094 0
M  V30 5 Pb -1.5868 1.7628 -3.4901 0
M  V30 6 Pd -6.9950 -0.2273 3.3803 0
M  V30 7 Pb -6.1664 -0.5233 3.8557 0
M  V30 8 Pb -6.8957 -0.9231 2.6615 0
M  V30 9 Pb -7.0322 0.6087 3.9246 0
M  V30 10 Pb -7.7971 0.0903 2.8890 0
M  V30 11 Pd 4.9482 -4.9957 2.2905 0
M  V30 12 Pb 5.4028 -5.2415 1.4339 0
M  V30 13 Pb 4.4528 -4.6839 3.1008 0
M  V30 14 Pb 5.7409 -4.4543 2.5728 0
M  V30 15 Pb 4.1490 -5.5160 1.9906 0
M  V30 16 Pd 7.3950 1.5788 1.0403 0
M  V30 17 Pb 7.8345 0.9209 1.6469 0
M  V30 18 Pb 6.8328 2.0824 0.3679 0
M  V30 19 Pb 6.7607 1.8212 1.7749 0
M  V30 20 Pb 8.0290 1.3519 0.3067 0
M  V30 21 Pd 0.6253 0.7561 4.8839 0
M  V30 22 Pb -0.2696 0.3236 5.0042 0
M  V30 23 Pb 1.0590 -0.1282 5.0636 0
M  V30 24 Pb 1.5247 1.1778 4.7665 0
M  V30 25 Pb 0.2075 1.6511 4.7149 0
M  V30 26 Pd 4.1039 0.2094 -3.3839 0
M  V30 27 Pb 4.4080 1.0052 -2.8316 0
M  V30 28 Pb 3.8600 -0.6086 -3.9080 0
M  V30 29 Pb 3.2343 0.2085 -2.8859 0
M  V30 30 Pb 5.0035 0.1878 -3.8100 0
M  V30 31 Pd 2.8000 -5.0561 -2.3876 0
M  V30 32 Pb 1.8509 -4.8711 -2.6361 0
M  V30 33 Pb 3.0618 -4.5107 -3.1850 0
M  V30 34 Pb 2.5179 -5.5693 -1.5773 0
M  V30 35 Pb 3.7541 -5.2315 -2.1377 0
M  V30 36 Pd -4.1433 5.7301 1.1811 0
M  V30 37 Pb -3.4120 5.5887 1.8493 0
M  V30 38 Pb -4.8569 5.8165 0.4831 0
M  V30 39 Pb -4.7960 5.5717 1.9233 0
M  V30 40 Pb -3.4882 5.7692 0.4285 0
M  V30 41 Pd -7.1755 1.2365 -3.3641 0
M  V30 42 Pb -7.0473 0.2966 -3.0341 0
M  V30 43 Pb -6.4438 1.1675 -4.0450 0
M  V30 44 Pb -7.2230 2.2278 -3.4691 0
M  V30 45 Pb -7.9095 1.3102 -2.6990 0
M  V30 46 Ag -5.5400 -0.7218 4.2177 0
M  V30 47 Fe -3.2311 -0.3656 4.6497 0
M  V30 48 Ag -0.9226 -0.0344 5.1034 0
M  V30 49 Ag -1.6383 -0.9647 -3.7619 0
M  V30 50 Fe -0.3138 -2.8869 -3.3365 0
M  V30 51 Ag 1.1615 -4.6824 -2.8574 0
M  V30 52 Ag -0.0643 2.3420 4.5946 0
M  V30 53 Fe -1.4780 3.8868 3.4704 0
M  V30 54 Ag -2.8817 5.4525 2.3629 0
M  V30 55 Ag 6.2954 2.0061 2.3338 0
M  V30 56 Fe 4.2410 1.7433 3.4967 0
M  V30 57 Ag 2.1955 1.5025 4.6799 0
M  V30 58 Ag -8.3339 0.3337 2.4389 0
M  V30 59 Fe -8.6140 0.8981 0.1611 0
M  V30 60 Ag -8.4115 1.3358 -2.1526 0
M  V30 61 Ag -6.8384 -1.3216 2.0209 0
M  V30 62 Fe -6.8742 -1.0126 -0.3426 0
M  V30 63 Ag -6.9614 -0.3340 -2.6261 0
M  V30 64 Ag 8.3720 1.1850 -0.3298 0
M  V30 65 Fe 7.4937 0.6246 -2.4437 0
M  V30 66 Ag 5.7319 0.1911 -3.9469 0
M  V30 67 Ag 6.3158 -4.0135 2.7682 0
M  V30 68 Fe 7.3134 -1.8747 2.5155 0
M  V30 69 Ag 8.0508 0.3334 2.0544 0
M  V30 70 Ag -7.0305 1.3132 4.1783 0
M  V30 71 Fe -6.2073 3.4334 3.4950 0
M  V30 72 Ag -5.2281 5.3538 2.4977 0
M  V30 73 Ag -1.5503 2.4906 -3.3129 0
M  V30 74 Fe -2.2362 4.1844 -1.7972 0
M  V30 75 Ag -3.0450 5.7149 -0.1724 0
M  V30 76 Ag -5.3227 5.8362 -0.1072 0
M  V30 77 Fe -6.3490 4.5407 -1.8144 0
M  V30 78 Ag -7.2270 2.9692 -3.3647 0
M  V30 79 Ag 4.0649 -4.4049 3.6785 0
M  V30 80 Fe 2.7211 -2.6155 4.4756 0
M  V30 81 Ag 1.3848 -0.7907 5.2022 0
M  V30 82 Ba 6.3831 2.4151 -0.1492 0
M  V30 83 Ga 5.5227 1.9766 -1.2873 0
M  V30 84 Ba 4.6421 1.6178 -2.4376 0
M  V30 85 Ba 3.5558 -5.8942 1.7313 0
M  V30 86 Ga 2.9177 -5.9399 0.4027 0
M  V30 87 Ba 2.3317 -5.9359 -0.9504 0
M  V30 88 Ba 5.6995 -5.3979 0.7624 0
M  V30 89 Ga 5.1102 -5.3969 -0.5917 0
M  V30 90 Ba 4.4578 -5.3766 -1.9165 0
M  V30 91 Ba -0.3081 0.5456 -2.5154 0
M  V30 92 Ga 1.1598 0.3879 -2.5339 0
M  V30 93 Ba 2.6237 0.2180 -2.4469 0
M  V30 94 Ba -2.9725 0.9334 -4.7520 0
M  V30 95 Ga -4.4416 1.0341 -4.6411 0
M  V30 96 Ba -5.9134 1.1359 -4.5768 0
M  V30 97 Ba 3.7439 -1.2308 -4.3140 0
M  V30 98 Ga 3.4691 -2.6559 -4.0382 0
M  V30 99 Ba 3.1944 -4.0860 -3.7903 0
M  V30 END ATOM
M  V30 BEGIN BOND
M  V30 1 1 1 2
M  V30 2 1 1 3
M  V30 3 1 1 4
M  V30 4 1 1 5
M  V30 5 1 6 7
M  V30 6 1 6 8
M  V30 7 1 6 9
M  V30 8 1 6 10
M  V30 9 1 11 12
M  V30 10 1 11 13
M  V30 11 1 11 14
M  V30 12 1 11 15
M  V30 13 1 16 17
M  V30 14 1 16 18
M  V30 15 1 16 19
M  V30 16 1 16 20
M  V30 17 1 21 22
M  V30 18 1 21 23
M  V30 19 1 21 24
M  V30 20 1 21 25
M  V30 21 1 26 27
M  V30 22 1 26 28
M  V30 23 1 26 29
M  V30 24 1 26 30
M  V30 25 1 31 32
M  V30 26 1 31 33
M  V30 27 1 31 34
M  V30 28 1 31 35
M  V30 29 1 36 37
M  V30 30 1 36 38
M  V30 31 1 36 39
M  V30 32 1 36 40
M  V30 33 1 41 42
M  V30 34 1 41 43
M  V30 35 1 41 44
M  V30 36 1 41 45
M  V30 37 1 46 47
M  V30 38 1 47 48
M  V30 39 1 49 50
M  V30 40 1 50 51
M  V30 41 1 52 53
M  V30 42 1 53 54
M  V30 43 1 55 56
M  V30 44 1 56 57
M  V30 45 1 58 59
M  V30 46 1 59 60
M  V30 47 1 61 62
M  V30 48 1 62 63
M  V30 49 1 64 65
M  V30 50 1 65 66
M  V30 51 1 67 68
M  V30 52 1 68 69
M  V30 53 1 70 71
M  V30 54 1 71 72
M  V30 55 1 73 74
M  V30 56 1 74 75
M  V30 57 1 76 77
M  V30 58 1 77 78
M  V30 59 1 79 80
M  V30 60 1 80 81
M  V30 61 1 82 83
M  V30 62 1 83 84
M  V30 63 1 85 86
M  V30 64 1 86 87
M  V30 65 1 88 89
M  V30 66 1 89 90
M  V30 67 1 91 92
M  V30 68 1 92 93
M  V30 69 1 94 95
M  V30 70 1 95 96
M  V30 71 1 97 98
M  V30 72 1 98 99
M  V30 73 1 2 49
M  V30 74 1 3 94
M  V30 75 1 4 91
M  V30 76 1 5 73
M  V30 77 1 7 46
M  V30 78 1 8 61
M  V30 79 1 9 70
M  V30 80 1 10 58
M  V30 81 1 12 88
M  V30 82 1 13 79
M  V30 83 1 14 67
M  V30 84 1 15 85
M  V30 85 1 17 69
M  V30 86 1 18 82
M  V30 87 1 19 55
M  V30 88 1 20 64
M  V30 89 1 22 48
M  V30 90 1 23 81
M  V30 91 1 24 57
M  V30 92 1 25 52
M  V30 93 1 27 84
M  V30 94 1 28 97
M  V30 95 1 29 93
M  V30 96 1 30 66
M  V30 97 1 32 51
M  V30 98 1 33 99
M  V30 99 1 34 87
M  V30 100 1 35 90
M  V30 101 1 37 54
M  V30 102 1 38 76
M  V30 103 1 39 72
M  V30 104 1 40 75
M  V30 105 1 42 63
M  V30 106 1 43 96
M  V30 107 1 44 78
M  V30 108 1 45 60
M  V30 END BOND
M  V30 END CTAB
M  END

$$$$
