
     RDKit          3D

  0  0  0  0  0  0  0  0  0  0999 V3000
M  V30 BEGIN CTAB
M  V30 COUNTS 99 108 0 0 0
M  V30 BEGIN ATOM
M  V30 1 Pd 3.4775 -1.7202 -5.0226 0
M  V30 2 Pb 3.7360 -2.4270 -4.3586 0
M  V30 3 Pb 4.4381 -1.5129 -5.1968 0
M  V30 4 Pb 2.4811 -1.8907 -4.8627 0
M  V30 5 Pb 3.2619 -1.0431 -5.7115 0
M  V30 6 Pd -2.4455 -0.0829 -5.2013 0
M  V30 7 Pb -3.0349 -0.5190 -4.4917 0
M  V30 8 Pb -1.6806 -0.7332 -5.0003 0
M  V30 9 Pb -1.9041 0.3613 -5.9008 0
M  V30 10 Pb -3.1616 0.5742 -5.3963 0
M  V30 11 Pd 1.5031 -3.4570 4.8378 0
M  V30 12 Pb 1.0272 -3.2714 5.6990 0
M  V30 13 Pb 0.7840 -4.1093 4.6028 0
M  V30 14 Pb 2.2196 -2.8189 5.0896 0
M  V30 15 Pb 1.9497 -3.6250 3.9371 0
M  V30 16 Pd -6.6643 0.1410 -0.7842 0
M  V30 17 Pb -6.5763 -0.5884 -0.1058 0
M  V30 18 Pb -7.2446 0.6596 -0.1564 0
M  V30 19 Pb -6.0329 -0.3577 -1.4122 0
M  V30 20 Pb -6.8070 0.8427 -1.4697 0
M  V30 21 Pd 6.6265 1.7478 -2.7206 0
M  V30 22 Pb 7.2548 1.1102 -2.2809 0
M  V30 23 Pb 6.4794 2.2491 -1.8696 0
M  V30 24 Pb 6.7491 1.2208 -3.5594 0
M  V30 25 Pb 5.9335 2.3443 -3.1297 0
M  V30 26 Pd -3.5581 -3.0302 5.5918 0
M  V30 27 Pb -4.2371 -3.1094 4.8638 0
M  V30 28 Pb -3.0667 -3.8148 5.2184 0
M  V30 29 Pb -4.0355 -2.2184 5.9267 0
M  V30 30 Pb -2.8423 -2.9329 6.2841 0
M  V30 31 Pd -5.4441 3.6399 3.0435 0
M  V30 32 Pb -5.2061 4.1045 2.1883 0
M  V30 33 Pb -4.5687 3.9611 3.3996 0
M  V30 34 Pb -5.6011 3.1161 3.8797 0
M  V30 35 Pb -6.3111 3.3071 2.6698 0
M  V30 36 Pd 0.9538 5.3253 0.0534 0
M  V30 37 Pb 0.6067 5.3567 0.9884 0
M  V30 38 Pb 0.0041 5.4392 -0.2464 0
M  V30 39 Pb 1.3082 5.2339 -0.8790 0
M  V30 40 Pb 1.8875 5.1613 0.3674 0
M  V30 41 Pd 5.5377 -2.5203 0.2517 0
M  V30 42 Pb 6.3594 -2.1302 -0.1655 0
M  V30 43 Pb 5.2942 -3.0085 -0.5902 0
M  V30 44 Pb 4.7335 -2.9455 0.7109 0
M  V30 45 Pb 5.7649 -2.0291 1.0830 0
M  V30 46 Ag 6.2953 2.6440 -1.2612 0
M  V30 47 Fe 4.5235 3.8520 -0.2454 0
M  V30 48 Ag 2.5962 4.9927 0.5386 0
M  V30 49 Ag -3.8921 4.2108 3.5979 0
M  V30 50 Fe -1.7560 4.8112 2.7591 0
M  V30 51 Ag 0.2780 5.3418 1.6598 0
M  V30 52 Ag 5.3721 2.7937 -3.3493 0
M  V30 53 Fe 3.4790 4.0008 -2.5673 0
M  V30 54 Ag 1.6479 5.1154 -1.5393 0
M  V30 55 Ag -3.7227 1.0526 -5.4296 0
M  V30 56 Fe -5.5040 1.5343 -3.9705 0
M  V30 57 Ag -6.8370 1.3025 -2.0463 0
M  V30 58 Ag -4.3997 -1.5921 6.1189 0
M  V30 59 Fe -5.0831 0.5639 5.3968 0
M  V30 60 Ag -5.6641 2.6766 4.4830 0
M  V30 61 Ag 2.8014 -2.3699 5.1659 0
M  V30 62 Fe 4.5545 -1.7564 3.7190 0
M  V30 63 Ag 5.8338 -1.7037 1.7429 0
M  V30 64 Ag 3.0140 -0.5526 -6.2023 0
M  V30 65 Fe 0.8936 0.3487 -6.6641 0
M  V30 66 Ag -1.4190 0.6479 -6.3753 0
M  V30 67 Ag -6.5428 -1.1446 0.3961 0
M  V30 68 Fe -5.6371 -2.1485 2.3478 0
M  V30 69 Ag -4.7279 -3.1487 4.2997 0
M  V30 70 Ag -4.9271 4.4291 1.5697 0
M  V30 71 Fe -2.8926 5.0148 0.4864 0
M  V30 72 Ag -0.7332 5.4949 -0.3867 0
M  V30 73 Ba 0.2296 -4.5898 4.4530 0
M  V30 74 Ga -1.2249 -4.5212 4.6734 0
M  V30 75 Ba -2.6685 -4.3767 4.9258 0
M  V30 76 Ba -3.4735 -0.8959 -3.9838 0
M  V30 77 Ga -4.5213 -0.7343 -2.9254 0
M  V30 78 Ba -5.5607 -0.7820 -1.8477 0
M  V30 79 Ba 7.6867 0.5836 -1.9729 0
M  V30 80 Ga 7.3567 -0.6264 -1.1987 0
M  V30 81 Ba 6.9956 -1.8297 -0.4279 0
M  V30 82 Ba -7.6579 1.0730 0.3133 0
M  V30 83 Ga -7.3213 2.0588 1.3586 0
M  V30 84 Ba -6.9590 3.0410 2.3987 0
M  V30 85 Ba 2.2145 -3.7970 3.2368 0
M  V30 86 Ga 3.2268 -3.4748 2.1836 0
M  V30 87 Ba 4.1337 -3.3256 1.0034 0
M  V30 88 Ba 1.7405 -2.0649 -4.7283 0
M  V30 89 Ga 0.3272 -1.5662 -4.8195 0
M  V30 90 Ba -1.1427 -1.2602 -4.8258 0
M  V30 91 Ba 0.6360 -3.1301 6.3246 0
M  V30 92 Ga -0.8114 -2.9947 6.5830 0
M  V30 93 Ba -2.2712 -2.8727 6.7675 0
M  V30 94 Ba 5.1381 -1.2990 -5.3521 0
M  V30 95 Ga 6.0164 -0.2694 -4.7715 0
M  V30 96 Ba 6.8509 0.7730 -4.1505 0
M  V30 97 Ba 3.9538 -2.9820 -3.8976 0
M  V30 98 Ga 4.5197 -3.1468 -2.5407 0
M  V30 99 Ba 5.0862 -3.4019 -1.1980 0
M  V30 END ATOM
M  V30 BEGIN BOND
M  V30 1 1 1 2
M  V30 2 1 1 3
M  V30 3 1 1 4
M  V30 4 1 1 5
M  V30 5 1 6 7
M  V30 6 1 6 8
M  V30 7 1 6 9
M  V30 8 1 6 10
M  V30 9 1 11 12
M  V30 10 1 11 13
M  V30 11 1 11 14
M  V30 12 1 11 15
M  V30 13 1 16 17
M  V30 14 1 16 18
M  V30 15 1 16 19
M  V30 16 1 16 20
M  V30 17 1 21 22
M  V30 18 1 21 23
M  V30 19 1 21 24
M  V30 20 1 21 25
M  V30 21 1 26 27
M  V30 22 1 26 28
M  V30 23 1 26 29
M  V30 24 1 26 30
M  V30 25 1 31 32
M  V30 26 1 31 33
M  V30 27 1 31 34
M  V30 28 1 31 35
M  V30 29 1 36 37
M  V30 30 1 36 38
M  V30 31 1 36 39
M  V30 32 1 36 40
M  V30 33 1 41 42
M  V30 34 1 41 43
M  V30 35 1 41 44
M  V30 36 1 41 45
M  V30 37 1 46 47
M  V30 38 1 47 48
M  V30 39 1 49 50
M  V30 40 1 50 51
M  V30 41 1 52 53
M  V30 42 1 53 54
M  V30 43 1 55 56
M  V30 44 1 56 57
M  V30 45 1 58 59
M  V30 46 1 59 60
M  V30 47 1 61 62
M  V30 48 1 62 63
M  V30 49 1 64 65
M  V30 50 1 65 66
M  V30 51 1 67 68
M  V30 52 1 68 69
M  V30 53 1 70 71
M  V30 54 1 71 72
M  V30 55 1 73 74
M  V30 56 1 74 75
M  V30 57 1 76 77
M  V30 58 1 77 78
M  V30 59 1 79 80
M  V30 60 1 80 81
M  V30 61 1 82 83
M  V30 62 1 83 84
M  V30 63 1 85 86
M  V30 64 1 86 87
M  V30 65 1 88 89
M  V30 66 1 89 90
M  V30 67 1 91 92
M  V30 68 1 92 93
M  V30 69 1 94 95
M  V30 70 1 95 96
M  V30 71 1 97 98
M  V30 72 1 98 99
M  V30 73 1 2 97
M  V30 74 1 3 94
M  V30 75 1 4 88
M  V30 76 1 5 64
M  V30 77 1 7 76
M  V30 78 1 8 90
M  V30 79 1 9 66
M  V30 80 1 10 55
M  V30 81 1 12 91
M  V30 82 1 13 73
M  V30 83 1 14 61
M  V30 84 1 15 85
M  V30 85 1 17 67
M  V30 86 1 18 82
M  V30 87 1 19 78
M  V30 88 1 20 57
M  V30 89 1 22 79
M  V30 90 1 23 46
M  V30 91 1 24 96
M  V30 92 1 25 52
M  V30 93 1 27 69
M  V30 94 1 28 75
M  V30 95 1 29 58
M  V30 96 1 30 93
M  V30 97 1 32 70
M  V30 98 1 33 49
M  V30 99 1 34 60
M  V30 100 1 35 84
M  V30 101 1 37 51
M  V30 102 1 38 72
M  V30 103 1 39 54
M  V30 104 1 40 48
M  V30 105 1 42 81
M  V30 106 1 43 99
M  V30 107 1 44 87
M  V30 108 1 45 63
M  V30 END BOND
M  V30 END CTAB
M  END

$$$$
