
     RDKit          3D

  0  0  0  0  0  0  0  0  0  0999 V3000
M  V30 BEGIN CTAB
M  V30 COUNTS 99 108 0 0 0
M  V30 BEGIN ATOM
M  V30 1 Pd -4.7028 -4.0831 -1.1555 0
M  V30 2 Pb -4.4736 -3.2370 -0.6771 0
M  V30 3 Pb -5.4514 -4.2610 -0.5129 0
M  V30 4 Pb -4.8497 -4.9965 -1.5292 0
M  V30 5 Pb -4.0169 -3.9079 -1.8661 0
M  V30 6 Pd -5.1842 -7.8505 1.9381 0
M  V30 7 Pb -5.2712 -7.7607 2.9254 0
M  V30 8 Pb -5.1113 -7.9328 0.9427 0
M  V30 9 Pb -5.9914 -7.2831 1.8041 0
M  V30 10 Pb -4.2633 -8.2454 2.0750 0
M  V30 11 Pd 5.2474 2.5819 0.3924 0
M  V30 12 Pb 5.0572 3.2220 1.1263 0
M  V30 13 Pb 5.3343 1.9182 -0.3456 0
M  V30 14 Pb 5.3963 3.3505 -0.2343 0
M  V30 15 Pb 5.1221 1.8203 1.0294 0
M  V30 16 Pd 3.3002 7.8235 -1.5031 0
M  V30 17 Pb 2.6813 8.6005 -1.5551 0
M  V30 18 Pb 3.2627 7.9661 -0.5145 0
M  V30 19 Pb 3.0949 7.5931 -2.4704 0
M  V30 20 Pb 3.9799 7.0830 -1.4757 0
M  V30 21 Pd 1.1408 -0.6223 2.3016 0
M  V30 22 Pb 1.1591 -0.0011 1.5200 0
M  V30 23 Pb 1.1321 -1.2562 3.0777 0
M  V30 24 Pb 2.1308 -0.5347 2.4164 0
M  V30 25 Pb 0.1511 -0.6822 2.1690 0
M  V30 26 Pd -0.0857 -5.9867 3.7285 0
M  V30 27 Pb -0.5912 -6.0734 4.5813 0
M  V30 28 Pb 0.3880 -5.9007 2.8528 0
M  V30 29 Pb -0.5724 -6.8057 3.3749 0
M  V30 30 Pb 0.3465 -5.1553 4.0830 0
M  V30 31 Pd 0.6357 4.9025 1.0275 0
M  V30 32 Pb 0.7153 3.9759 0.6587 0
M  V30 33 Pb -0.2732 4.9556 0.5949 0
M  V30 34 Pb 1.5076 4.8346 1.5103 0
M  V30 35 Pb 0.6912 5.8543 1.3270 0
M  V30 36 Pd 0.6720 -2.2907 -3.0312 0
M  V30 37 Pb 0.4677 -1.4819 -3.5825 0
M  V30 38 Pb 1.6040 -1.9474 -2.9225 0
M  V30 39 Pb -0.2458 -2.6533 -3.2074 0
M  V30 40 Pb 0.9003 -3.0745 -2.4548 0
M  V30 41 Pd -0.9842 5.4120 -3.7651 0
M  V30 42 Pb -0.1545 5.7917 -4.2064 0
M  V30 43 Pb -1.3193 6.3339 -3.6028 0
M  V30 44 Pb -1.6449 5.0929 -3.0909 0
M  V30 45 Pb -0.7247 4.4790 -4.0203 0
M  V30 46 Ag 0.3493 -0.8604 -3.9852 0
M  V30 47 Fe -0.1148 1.4678 -4.0846 0
M  V30 48 Ag -0.5728 3.7908 -4.2816 0
M  V30 49 Ag -5.1893 -7.6539 3.6545 0
M  V30 50 Fe -3.3236 -6.9235 4.8931 0
M  V30 51 Ag -1.0979 -6.1845 5.1102 0
M  V30 52 Ag 0.7094 -5.8551 2.1774 0
M  V30 53 Fe 0.9135 -4.7547 0.0835 0
M  V30 54 Ag 1.1011 -3.6381 -2.0034 0
M  V30 55 Ag -4.2575 -2.6578 -0.2543 0
M  V30 56 Fe -2.4472 -1.6330 0.8914 0
M  V30 57 Ag -0.5823 -0.6771 2.0089 0
M  V30 58 Ag 2.1245 9.0795 -1.6374 0
M  V30 59 Fe -0.0076 8.6410 -2.5139 0
M  V30 60 Ag -1.4513 7.0454 -3.4509 0
M  V30 61 Ag 5.3125 1.3842 -0.8667 0
M  V30 62 Fe 3.8648 -0.1745 -1.9168 0
M  V30 63 Ag 2.3026 -1.6806 -2.8760 0
M  V30 64 Ba 5.5470 3.9273 -0.6938 0
M  V30 65 Ga 4.9763 5.2396 -1.0727 0
M  V30 66 Ba 4.5285 6.5683 -1.5467 0
M  V30 67 Ba -3.5516 -8.4945 2.1869 0
M  V30 68 Ga -2.2545 -7.9247 2.6591 0
M  V30 69 Ba -0.9193 -7.4385 3.1182 0
M  V30 70 Ba -6.0399 -4.4337 -0.0764 0
M  V30 71 Ga -6.3365 -5.5732 0.8115 0
M  V30 72 Ba -6.5051 -6.7582 1.6723 0
M  V30 73 Ba -0.9628 4.9023 0.2837 0
M  V30 74 Ga -1.5372 4.9115 -1.0818 0
M  V30 75 Ba -2.0413 4.9422 -2.4741 0
M  V30 76 Ba 2.8763 7.4021 -3.1802 0
M  V30 77 Ga 1.6862 6.7461 -3.8091 0
M  V30 78 Ba 0.5042 6.0921 -4.4551 0
M  V30 79 Ba -4.9232 -5.7170 -1.7164 0
M  V30 80 Ga -5.0129 -6.8806 -0.8151 0
M  V30 81 Ba -5.0944 -7.9550 0.1918 0
M  V30 82 Ba 1.1811 -1.7190 3.6687 0
M  V30 83 Ga 0.8940 -3.1322 3.9916 0
M  V30 84 Ba 0.6347 -4.5317 4.3889 0
M  V30 85 Ba -3.5667 -3.8076 -2.4613 0
M  V30 86 Ga -2.2170 -3.3483 -2.8512 0
M  V30 87 Ba -0.9160 -2.9267 -3.4121 0
M  V30 88 Ba 4.8266 3.6858 1.6577 0
M  V30 89 Ga 3.4947 4.2867 1.8104 0
M  V30 90 Ba 2.1429 4.8541 1.9081 0
M  V30 91 Ba 1.1433 0.4468 0.9205 0
M  V30 92 Ga 0.9727 1.8881 0.6603 0
M  V30 93 Ba 0.8077 3.3129 0.3188 0
M  V30 94 Ba 5.0485 1.2450 1.5060 0
M  V30 95 Ga 3.9482 0.3947 2.0003 0
M  V30 96 Ba 2.8721 -0.4739 2.5154 0
M  V30 97 Ba 3.0316 8.0933 0.1896 0
M  V30 98 Ga 1.9851 7.3681 0.9438 0
M  V30 99 Ba 0.9365 6.5255 1.5605 0
M  V30 END ATOM
M  V30 BEGIN BOND
M  V30 1 1 1 2
M  V30 2 1 1 3
M  V30 3 1 1 4
M  V30 4 1 1 5
M  V30 5 1 6 7
M  V30 6 1 6 8
M  V30 7 1 6 9
M  V30 8 1 6 10
M  V30 9 1 11 12
M  V30 10 1 11 13
M  V30 11 1 11 14
M  V30 12 1 11 15
M  V30 13 1 16 17
M  V30 14 1 16 18
M  V30 15 1 16 19
M  V30 16 1 16 20
M  V30 17 1 21 22
M  V30 18 1 21 23
M  V30 19 1 21 24
M  V30 20 1 21 25
M  V30 21 1 26 27
M  V30 22 1 26 28
M  V30 23 1 26 29
M  V30 24 1 26 30
M  V30 25 1 31 32
M  V30 26 1 31 33
M  V30 27 1 31 34
M  V30 28 1 31 35
M  V30 29 1 36 37
M  V30 30 1 36 38
M  V30 31 1 36 39
M  V30 32 1 36 40
M  V30 33 1 41 42
M  V30 34 1 41 43
M  V30 35 1 41 44
M  V30 36 1 41 45
M  V30 37 1 46 47
M  V30 38 1 47 48
M  V30 39 1 49 50
M  V30 40 1 50 51
M  V30 41 1 52 53
M  V30 42 1 53 54
M  V30 43 1 55 56
M  V30 44 1 56 57
M  V30 45 1 58 59
M  V30 46 1 59 60
M  V30 47 1 61 62
M  V30 48 1 62 63
M  V30 49 1 64 65
M  V30 50 1 65 66
M  V30 51 1 67 68
M  V30 52 1 68 69
M  V30 53 1 70 71
M  V30 54 1 71 72
M  V30 55 1 73 74
M  V30 56 1 74 75
M  V30 57 1 76 77
M  V30 58 1 77 78
M  V30 59 1 79 80
M  V30 60 1 80 81
M  V30 61 1 82 83
M  V30 62 1 83 84
M  V30 63 1 85 86
M  V30 64 1 86 87
M  V30 65 1 88 89
M  V30 66 1 89 90
M  V30 67 1 91 92
M  V30 68 1 92 93
M  V30 69 1 94 95
M  V30 70 1 95 96
M  V30 71 1 97 98
M  V30 72 1 98 99
M  V30 73 1 2 55
M  V30 74 1 3 70
M  V30 75 1 4 79
M  V30 76 1 5 85
M  V30 77 1 7 49
M  V30 78 1 8 81
M  V30 79 1 9 72
M  V30 80 1 10 67
M  V30 81 1 12 88
M  V30 82 1 13 61
M  V30 83 1 14 64
M  V30 84 1 15 94
M  V30 85 1 17 58
M  V30 86 1 18 97
M  V30 87 1 19 76
M  V30 88 1 20 66
M  V30 89 1 22 91
M  V30 90 1 23 82
M  V30 91 1 24 96
M  V30 92 1 25 57
M  V30 93 1 27 51
M  V30 94 1 28 52
M  V30 95 1 29 69
M  V30 96 1 30 84
M  V30 97 1 32 93
M  V30 98 1 33 73
M  V30 99 1 34 90
M  V30 100 1 35 99
M  V30 101 1 37 46
M  V30 102 1 38 63
M  V30 103 1 39 87
M  V30 104 1 40 54
M  V30 105 1 42 78
M  V30 106 1 43 60
M  V30 107 1 44 75
M  V30 108 1 45 48
M  V30 END BOND
M  V30 END CTAB
M  END

$$$$
