
     RDKit          3D

  0  0  0  0  0  0  0  0  0  0999 V3000
M  V30 BEGIN CTAB
M  V30 COUNTS 99 108 0 0 0
M  V30 BEGIN ATOM
M  V30 1 Pd -4.7890 -2.1406 -2.2579 0
M  V30 2 Pb -4.5611 -3.0052 -1.8095 0
M  V30 3 Pb -5.0039 -1.3080 -2.7742 0
M  V30 4 Pb -5.3565 -1.8366 -1.4882 0
M  V30 5 Pb -4.2141 -2.4326 -3.0162 0
M  V30 6 Pd -0.2554 4.7661 -0.5136 0
M  V30 7 Pb -0.1604 4.0126 0.1332 0
M  V30 8 Pb -1.2484 4.7614 -0.4006 0
M  V30 9 Pb 0.7035 4.6757 -0.7646 0
M  V30 10 Pb -0.3611 5.3947 -1.2767 0
M  V30 11 Pd 5.8101 -2.6663 2.3596 0
M  V30 12 Pb 5.5158 -3.3856 1.7278 0
M  V30 13 Pb 6.2239 -2.1249 1.6241 0
M  V30 14 Pb 5.9775 -1.9226 3.0054 0
M  V30 15 Pb 5.3430 -3.1842 3.0750 0
M  V30 16 Pd 1.8074 3.0100 4.2108 0
M  V30 17 Pb 2.6667 2.6537 4.5757 0
M  V30 18 Pb 0.9362 3.2722 3.7858 0
M  V30 19 Pb 2.3489 3.5063 3.5351 0
M  V30 20 Pb 1.2722 2.4499 4.8371 0
M  V30 21 Pd 3.5497 0.9768 -0.0997 0
M  V30 22 Pb 2.6136 1.1299 0.2223 0
M  V30 23 Pb 4.5057 0.7639 -0.2977 0
M  V30 24 Pb 3.7881 1.8580 0.3094 0
M  V30 25 Pb 3.3081 0.1256 -0.5697 0
M  V30 26 Pd -4.3938 -0.5459 3.1806 0
M  V30 27 Pb -4.1347 0.3827 2.9040 0
M  V30 28 Pb -4.5376 -1.4916 3.4678 0
M  V30 29 Pb -5.0555 -0.6468 2.4324 0
M  V30 30 Pb -3.7415 -0.4426 3.9283 0
M  V30 31 Pd -0.3181 -6.3486 2.3681 0
M  V30 32 Pb -0.9755 -6.4186 1.6201 0
M  V30 33 Pb -1.1100 -6.1980 2.9572 0
M  V30 34 Pb 0.3324 -6.1975 3.1101 0
M  V30 35 Pb 0.4767 -6.3983 1.7591 0
M  V30 36 Pd 1.5377 -0.0476 -4.9532 0
M  V30 37 Pb 1.9557 -0.6351 -4.2579 0
M  V30 38 Pb 1.0156 0.5490 -5.5698 0
M  V30 39 Pb 2.1018 0.7069 -4.6263 0
M  V30 40 Pb 0.9346 -0.7925 -5.2187 0
M  V30 41 Pd -2.8470 3.0595 -4.1952 0
M  V30 42 Pb -3.2781 3.3931 -3.3535 0
M  V30 43 Pb -3.5137 2.3084 -4.2279 0
M  V30 44 Pb -2.3431 2.7289 -5.0006 0
M  V30 45 Pb -2.2770 3.8819 -4.1930 0
M  V30 46 Ag -4.3514 -3.6797 -1.5551 0
M  V30 47 Fe -2.9485 -5.0658 -0.2321 0
M  V30 48 Ag -1.5255 -6.4103 1.1122 0
M  V30 49 Ag 0.2541 3.3754 3.4799 0
M  V30 50 Fe -1.8406 2.3269 3.0564 0
M  V30 51 Ag -3.8323 1.0577 2.7591 0
M  V30 52 Ag 4.9329 -3.5873 3.5547 0
M  V30 53 Fe 2.9296 -4.8462 3.7361 0
M  V30 54 Ag 0.8772 -6.0288 3.5943 0
M  V30 55 Ag 5.1898 -3.9300 1.3242 0
M  V30 56 Fe 3.1984 -5.2254 1.2157 0
M  V30 57 Ag 1.1133 -6.3601 1.3590 0
M  V30 58 Ag 0.8125 2.0074 5.2235 0
M  V30 59 Fe -1.2064 0.7874 4.9894 0
M  V30 60 Ag -3.2327 -0.3248 4.4629 0
M  V30 61 Ag 6.0038 -1.3486 3.4858 0
M  V30 62 Fe 4.7695 0.5365 4.2325 0
M  V30 63 Ag 3.3192 2.3385 4.7655 0
M  V30 64 Ag 1.3592 4.5224 -1.0818 0
M  V30 65 Fe 2.1582 2.9781 -2.6898 0
M  V30 66 Ag 2.4723 1.2629 -4.2930 0
M  V30 67 Ag -3.7460 -2.6231 -3.5638 0
M  V30 68 Fe -1.6725 -2.0930 -4.5765 0
M  V30 69 Ag 0.4231 -1.3149 -5.3565 0
M  V30 70 Ag -4.5327 -2.2048 3.6953 0
M  V30 71 Fe -3.2428 -4.1948 3.6034 0
M  V30 72 Ag -1.7405 -6.0088 3.3134 0
M  V30 73 Ba -0.0893 3.3896 0.5414 0
M  V30 74 Ga 0.9283 2.3210 0.5513 0
M  V30 75 Ba 1.9491 1.2555 0.5518 0
M  V30 76 Ba 3.1802 -0.5039 -0.9609 0
M  V30 77 Ga 2.6985 -0.7928 -2.3281 0
M  V30 78 Ba 2.2147 -1.0651 -3.6980 0
M  V30 79 Ba 2.8007 3.8075 3.0204 0
M  V30 80 Ga 3.3792 3.2129 1.8020 0
M  V30 81 Ba 3.9101 2.5371 0.6044 0
M  V30 82 Ba -0.4540 5.7516 -1.9231 0
M  V30 83 Ga -1.1630 5.2098 -3.0924 0
M  V30 84 Ba -1.9019 4.5319 -4.1692 0
M  V30 85 Ba -1.9964 4.7122 -0.4207 0
M  V30 86 Ga -2.8346 4.1970 -1.5225 0
M  V30 87 Ba -3.5441 3.6564 -2.7003 0
M  V30 88 Ba -5.7969 -1.5933 -0.9273 0
M  V30 89 Ga -5.6472 -1.1681 0.4820 0
M  V30 90 Ba -5.5759 -0.7298 1.8935 0
M  V30 91 Ba 0.5625 0.9572 -6.0148 0
M  V30 92 Ga -0.6778 1.7412 -5.7997 0
M  V30 93 Ba -1.9188 2.5262 -5.5930 0
M  V30 94 Ba -5.1722 -0.7260 -3.2215 0
M  V30 95 Ga -4.5708 0.5391 -3.6998 0
M  V30 96 Ba -4.0907 1.8224 -4.2594 0
M  V30 97 Ba 6.5019 -1.6865 1.0792 0
M  V30 98 Ga 5.9077 -0.5718 0.3139 0
M  V30 99 Ba 5.2104 0.5246 -0.3878 0
M  V30 END ATOM
M  V30 BEGIN BOND
M  V30 1 1 1 2
M  V30 2 1 1 3
M  V30 3 1 1 4
M  V30 4 1 1 5
M  V30 5 1 6 7
M  V30 6 1 6 8
M  V30 7 1 6 9
M  V30 8 1 6 10
M  V30 9 1 11 12
M  V30 10 1 11 13
M  V30 11 1 11 14
M  V30 12 1 11 15
M  V30 13 1 16 17
M  V30 14 1 16 18
M  V30 15 1 16 19
M  V30 16 1 16 20
M  V30 17 1 21 22
M  V30 18 1 21 23
M  V30 19 1 21 24
M  V30 20 1 21 25
M  V30 21 1 26 27
M  V30 22 1 26 28
M  V30 23 1 26 29
M  V30 24 1 26 30
M  V30 25 1 31 32
M  V30 26 1 31 33
M  V30 27 1 31 34
M  V30 28 1 31 35
M  V30 29 1 36 37
M  V30 30 1 36 38
M  V30 31 1 36 39
M  V30 32 1 36 40
M  V30 33 1 41 42
M  V30 34 1 41 43
M  V30 35 1 41 44
M  V30 36 1 41 45
M  V30 37 1 46 47
M  V30 38 1 47 48
M  V30 39 1 49 50
M  V30 40 1 50 51
M  V30 41 1 52 53
M  V30 42 1 53 54
M  V30 43 1 55 56
M  V30 44 1 56 57
M  V30 45 1 58 59
M  V30 46 1 59 60
M  V30 47 1 61 62
M  V30 48 1 62 63
M  V30 49 1 64 65
M  V30 50 1 65 66
M  V30 51 1 67 68
M  V30 52 1 68 69
M  V30 53 1 70 71
M  V30 54 1 71 72
M  V30 55 1 73 74
M  V30 56 1 74 75
M  V30 57 1 76 77
M  V30 58 1 77 78
M  V30 59 1 79 80
M  V30 60 1 80 81
M  V30 61 1 82 83
M  V30 62 1 83 84
M  V30 63 1 85 86
M  V30 64 1 86 87
M  V30 65 1 88 89
M  V30 66 1 89 90
M  V30 67 1 91 92
M  V30 68 1 92 93
M  V30 69 1 94 95
M  V30 70 1 95 96
M  V30 71 1 97 98
M  V30 72 1 98 99
M  V30 73 1 2 46
M  V30 74 1 3 94
M  V30 75 1 4 88
M  V30 76 1 5 67
M  V30 77 1 7 73
M  V30 78 1 8 85
M  V30 79 1 9 64
M  V30 80 1 10 82
M  V30 81 1 12 55
M  V30 82 1 13 97
M  V30 83 1 14 61
M  V30 84 1 15 52
M  V30 85 1 17 63
M  V30 86 1 18 49
M  V30 87 1 19 79
M  V30 88 1 20 58
M  V30 89 1 22 75
M  V30 90 1 23 99
M  V30 91 1 24 81
M  V30 92 1 25 76
M  V30 93 1 27 51
M  V30 94 1 28 70
M  V30 95 1 29 90
M  V30 96 1 30 60
M  V30 97 1 32 48
M  V30 98 1 33 72
M  V30 99 1 34 54
M  V30 100 1 35 57
M  V30 101 1 37 78
M  V30 102 1 38 91
M  V30 103 1 39 66
M  V30 104 1 40 69
M  V30 105 1 42 87
M  V30 106 1 43 96
M  V30 107 1 44 93
M  V30 108 1 45 84
M  V30 END BOND
M  V30 END CTAB
M  END

$$$$
