
     RDKit          3D

  0  0  0  0  0  0  0  0  0  0999 V3000
M  V30 BEGIN CTAB
M  V30 COUNTS 99 108 0 0 0
M  V30 BEGIN ATOM
M  V30 1 Pd 2.9345 -3.7103 0.7302 0
M  V30 2 Pb 3.5413 -4.2065 0.1089 0
M  V30 3 Pb 2.3181 -3.2126 1.3388 0
M  V30 4 Pb 2.4460 -4.5568 0.9447 0
M  V30 5 Pb 3.4252 -2.8605 0.5359 0
M  V30 6 Pd -1.0517 5.5223 6.7606 0
M  V30 7 Pb -1.6230 5.7377 5.9672 0
M  V30 8 Pb -1.6037 4.7182 6.9733 0
M  V30 9 Pb -0.3707 6.1894 6.4769 0
M  V30 10 Pb -0.4372 5.2695 7.5049 0
M  V30 11 Pd -0.7047 0.6466 -7.1494 0
M  V30 12 Pb 0.2514 0.4892 -6.8985 0
M  V30 13 Pb -0.6823 1.5861 -6.8091 0
M  V30 14 Pb -1.6841 0.7433 -7.3153 0
M  V30 15 Pb -0.7449 -0.3189 -7.4008 0
M  V30 16 Pd -5.9839 -1.0383 -2.8841 0
M  V30 17 Pb -6.0675 -0.6423 -3.7957 0
M  V30 18 Pb -5.7696 -1.4500 -1.9967 0
M  V30 19 Pb -6.0933 -0.1239 -2.4929 0
M  V30 20 Pb -5.7979 -1.9335 -3.2855 0
M  V30 21 Pd -2.0725 5.2030 -1.0088 0
M  V30 22 Pb -2.3116 5.4336 -0.0624 0
M  V30 23 Pb -1.8420 5.0220 -1.9667 0
M  V30 24 Pb -2.9919 4.8247 -1.1261 0
M  V30 25 Pb -1.1294 5.5095 -0.8809 0
M  V30 26 Pd -1.4102 -6.4013 -1.2140 0
M  V30 27 Pb -2.0009 -5.7930 -0.6782 0
M  V30 28 Pb -0.8215 -6.9800 -1.7800 0
M  V30 29 Pb -0.7776 -6.5244 -0.4493 0
M  V30 30 Pb -2.0462 -6.2592 -1.9703 0
M  V30 31 Pd 2.5759 -5.1890 -4.4399 0
M  V30 32 Pb 3.2756 -5.2942 -3.7326 0
M  V30 33 Pb 2.1928 -6.0807 -4.1973 0
M  V30 34 Pb 1.8798 -5.0594 -5.1444 0
M  V30 35 Pb 2.9033 -4.2714 -4.6724 0
M  V30 36 Pd 4.3157 3.6560 2.6625 0
M  V30 37 Pb 3.9948 4.2047 1.8919 0
M  V30 38 Pb 4.5502 3.0927 3.4583 0
M  V30 39 Pb 4.1004 4.4421 3.2389 0
M  V30 40 Pb 4.5084 2.8802 2.0607 0
M  V30 41 Pd 1.3315 1.3624 6.5522 0
M  V30 42 Pb 0.3550 1.4289 6.7768 0
M  V30 43 Pb 1.1172 0.7079 5.8279 0
M  V30 44 Pb 2.3057 1.3470 6.3102 0
M  V30 45 Pb 1.5136 2.0181 7.2826 0
M  V30 46 Ag -2.0292 5.8847 5.3527 0
M  V30 47 Fe -2.2617 5.7458 2.9907 0
M  V30 48 Ag -2.5311 5.6267 0.6315 0
M  V30 49 Ag -0.4020 5.6789 -0.8127 0
M  V30 50 Fe 1.6760 5.2082 0.2354 0
M  V30 51 Ag 3.6855 4.6364 1.3637 0
M  V30 52 Ag -6.1328 0.5830 -2.2437 0
M  V30 53 Fe -4.9458 2.5680 -1.6989 0
M  V30 54 Ag -3.6688 4.5033 -1.1797 0
M  V30 55 Ag -5.5220 -1.8208 -1.3913 0
M  V30 56 Fe -4.0306 -3.5540 -0.7373 0
M  V30 57 Ag -2.4782 -5.3131 -0.3478 0
M  V30 58 Ag -0.7317 -1.0596 -7.5061 0
M  V30 59 Fe 0.2494 -3.0592 -6.6873 0
M  V30 60 Ag 1.3799 -4.8824 -5.6730 0
M  V30 61 Ag 0.9356 0.2734 -6.6761 0
M  V30 62 Fe 2.1256 -1.5759 -5.7744 0
M  V30 63 Ag 3.0652 -3.5669 -4.8785 0
M  V30 64 Ag -5.5895 -2.6052 -3.5412 0
M  V30 65 Fe -4.1195 -4.4224 -3.1326 0
M  V30 66 Ag -2.5575 -6.0886 -2.4894 0
M  V30 67 Ag -2.4301 0.7779 -7.3473 0
M  V30 68 Fe -4.3557 0.2792 -6.0565 0
M  V30 69 Ag -6.0123 -0.3495 -4.4808 0
M  V30 70 Ag 0.2383 6.5414 6.2337 0
M  V30 71 Fe 2.1439 5.9771 4.9428 0
M  V30 72 Ag 3.8771 5.0453 3.6212 0
M  V30 73 Ag 3.7922 -2.2194 0.4046 0
M  V30 74 Fe 4.2267 0.0398 0.9964 0
M  V30 75 Ag 4.6438 2.2968 1.6084 0
M  V30 76 Ag 1.8450 -2.8440 1.7875 0
M  V30 77 Fe 1.4197 -1.3056 3.5452 0
M  V30 78 Ag 0.9198 0.2201 5.2941 0
M  V30 79 Ag -0.7054 2.2744 -6.5131 0
M  V30 80 Fe -1.1697 3.6036 -4.5992 0
M  V30 81 Ag -1.6363 4.9305 -2.6842 0
M  V30 82 Ba 3.9923 -4.5746 -0.3644 0
M  V30 83 Ga 3.8986 -4.9764 -1.7809 0
M  V30 84 Ba 3.7960 -5.3742 -3.1980 0
M  V30 85 Ba 0.0609 5.0345 8.0101 0
M  V30 86 Ga 0.8632 3.8017 7.9898 0
M  V30 87 Ba 1.5850 2.5308 7.8226 0
M  V30 88 Ba -1.9040 4.0450 7.1064 0
M  V30 89 Ga -1.2020 2.7462 7.0447 0
M  V30 90 Ba -0.3737 1.5262 6.9451 0
M  V30 91 Ba 2.0762 -5.1845 1.1256 0
M  V30 92 Ga 0.8915 -5.9003 0.6148 0
M  V30 93 Ba -0.2917 -6.6250 0.1130 0
M  V30 94 Ba 4.6959 2.6496 4.0495 0
M  V30 95 Ga 3.8668 2.0050 5.0922 0
M  V30 96 Ba 3.0390 1.3595 6.1354 0
M  V30 97 Ba -0.3659 -7.3989 -2.2055 0
M  V30 98 Ga 0.7598 -7.0869 -3.1079 0
M  V30 99 Ba 1.8801 -6.7342 -4.0017 0
M  V30 END ATOM
M  V30 BEGIN BOND
M  V30 1 1 1 2
M  V30 2 1 1 3
M  V30 3 1 1 4
M  V30 4 1 1 5
M  V30 5 1 6 7
M  V30 6 1 6 8
M  V30 7 1 6 9
M  V30 8 1 6 10
M  V30 9 1 11 12
M  V30 10 1 11 13
M  V30 11 1 11 14
M  V30 12 1 11 15
M  V30 13 1 16 17
M  V30 14 1 16 18
M  V30 15 1 16 19
M  V30 16 1 16 20
M  V30 17 1 21 22
M  V30 18 1 21 23
M  V30 19 1 21 24
M  V30 20 1 21 25
M  V30 21 1 26 27
M  V30 22 1 26 28
M  V30 23 1 26 29
M  V30 24 1 26 30
M  V30 25 1 31 32
M  V30 26 1 31 33
M  V30 27 1 31 34
M  V30 28 1 31 35
M  V30 29 1 36 37
M  V30 30 1 36 38
M  V30 31 1 36 39
M  V30 32 1 36 40
M  V30 33 1 41 42
M  V30 34 1 41 43
M  V30 35 1 41 44
M  V30 36 1 41 45
M  V30 37 1 46 47
M  V30 38 1 47 48
M  V30 39 1 49 50
M  V30 40 1 50 51
M  V30 41 1 52 53
M  V30 42 1 53 54
M  V30 43 1 55 56
M  V30 44 1 56 57
M  V30 45 1 58 59
M  V30 46 1 59 60
M  V30 47 1 61 62
M  V30 48 1 62 63
M  V30 49 1 64 65
M  V30 50 1 65 66
M  V30 51 1 67 68
M  V30 52 1 68 69
M  V30 53 1 70 71
M  V30 54 1 71 72
M  V30 55 1 73 74
M  V30 56 1 74 75
M  V30 57 1 76 77
M  V30 58 1 77 78
M  V30 59 1 79 80
M  V30 60 1 80 81
M  V30 61 1 82 83
M  V30 62 1 83 84
M  V30 63 1 85 86
M  V30 64 1 86 87
M  V30 65 1 88 89
M  V30 66 1 89 90
M  V30 67 1 91 92
M  V30 68 1 92 93
M  V30 69 1 94 95
M  V30 70 1 95 96
M  V30 71 1 97 98
M  V30 72 1 98 99
M  V30 73 1 2 82
M  V30 74 1 3 76
M  V30 75 1 4 91
M  V30 76 1 5 73
M  V30 77 1 7 46
M  V30 78 1 8 88
M  V30 79 1 9 70
M  V30 80 1 10 85
M  V30 81 1 12 61
M  V30 82 1 13 79
M  V30 83 1 14 67
M  V30 84 1 15 58
M  V30 85 1 17 69
M  V30 86 1 18 55
M  V30 87 1 19 52
M  V30 88 1 20 64
M  V30 89 1 22 48
M  V30 90 1 23 81
M  V30 91 1 24 54
M  V30 92 1 25 49
M  V30 93 1 27 57
M  V30 94 1 28 97
M  V30 95 1 29 93
M  V30 96 1 30 66
M  V30 97 1 32 84
M  V30 98 1 33 99
M  V30 99 1 34 60
M  V30 100 1 35 63
M  V30 101 1 37 51
M  V30 102 1 38 94
M  V30 103 1 39 72
M  V30 104 1 40 75
M  V30 105 1 42 90
M  V30 106 1 43 78
M  V30 107 1 44 96
M  V30 108 1 45 87
M  V30 END BOND
M  V30 END CTAB
M  END

$$$$
