
     RDKit          3D

  0  0  0  0  0  0  0  0  0  0999 V3000
M  V30 BEGIN CTAB
M  V30 COUNTS 99 108 0 0 0
M  V30 BEGIN ATOM
M  V30 1 Pd 1.7101 2.1747 3.2503 0
M  V30 2 Pb 2.2105 1.5534 3.8528 0
M  V30 3 Pb 2.1937 1.7226 2.5014 0
M  V30 4 Pb 1.1933 2.5682 4.0131 0
M  V30 5 Pb 1.1954 2.7629 2.6234 0
M  V30 6 Pd 5.1652 0.7848 -7.0051 0
M  V30 7 Pb 4.3624 0.2297 -7.2273 0
M  V30 8 Pb 5.9333 1.3405 -6.6920 0
M  V30 9 Pb 4.7341 1.6089 -7.3701 0
M  V30 10 Pb 5.5500 0.0393 -6.4612 0
M  V30 11 Pd -1.9538 -4.4652 -0.0589 0
M  V30 12 Pb -1.0028 -4.1698 0.0767 0
M  V30 13 Pb -1.8413 -4.4635 -1.0576 0
M  V30 14 Pb -2.9062 -4.7617 -0.1568 0
M  V30 15 Pb -2.0593 -4.5390 0.9307 0
M  V30 16 Pd -6.6180 -2.2738 1.3400 0
M  V30 17 Pb -6.3978 -3.1763 0.9666 0
M  V30 18 Pb -6.6791 -2.6172 2.2766 0
M  V30 19 Pb -6.5235 -1.8995 0.4206 0
M  V30 20 Pb -6.7839 -1.3647 1.7252 0
M  V30 21 Pd -2.0026 -1.2997 -4.8487 0
M  V30 22 Pb -1.1878 -1.3837 -5.4271 0
M  V30 23 Pb -1.8927 -2.2468 -4.5389 0
M  V30 24 Pb -2.8501 -1.2094 -4.3282 0
M  V30 25 Pb -2.1006 -0.3424 -5.1183 0
M  V30 26 Pd -4.2958 0.7237 7.2839 0
M  V30 27 Pb -4.8555 -0.0996 7.1986 0
M  V30 28 Pb -3.6113 0.2093 7.7931 0
M  V30 29 Pb -3.6618 1.4961 7.2478 0
M  V30 30 Pb -4.9227 1.1572 6.6381 0
M  V30 31 Pd 0.9027 -2.9364 4.2785 0
M  V30 32 Pb 1.6828 -2.3343 4.4534 0
M  V30 33 Pb 0.6310 -2.8057 5.2305 0
M  V30 34 Pb 0.0866 -3.4911 4.1327 0
M  V30 35 Pb 1.1374 -3.0454 3.3080 0
M  V30 36 Pd 0.8859 5.4806 -3.6040 0
M  V30 37 Pb 0.1096 5.0857 -4.0918 0
M  V30 38 Pb 1.6804 5.7820 -3.0781 0
M  V30 39 Pb 1.3861 5.4752 -4.4716 0
M  V30 40 Pb 0.4135 5.3964 -2.7274 0
M  V30 41 Pd 6.2539 1.9381 -0.5497 0
M  V30 42 Pb 6.9162 2.3210 -1.1890 0
M  V30 43 Pb 5.4910 1.5252 -0.0513 0
M  V30 44 Pb 5.9424 2.8645 -0.3485 0
M  V30 45 Pb 6.4816 1.0392 -0.9247 0
M  V30 46 Ag 3.7516 -0.1921 -7.3425 0
M  V30 47 Fe 1.5747 -0.8187 -6.6213 0
M  V30 48 Ag -0.6013 -1.4427 -5.8953 0
M  V30 49 Ag -2.1717 0.3866 -5.2770 0
M  V30 50 Fe -1.3644 2.5901 -4.9208 0
M  V30 51 Ag -0.4325 4.7237 -4.4595 0
M  V30 52 Ag -6.4216 -1.6330 -0.2699 0
M  V30 53 Fe -4.9606 -1.3752 -2.1216 0
M  V30 54 Ag -3.5046 -1.1142 -3.9769 0
M  V30 55 Ag -6.7034 -2.7690 3.0102 0
M  V30 56 Fe -6.0468 -1.8820 5.1121 0
M  V30 57 Ag -5.2407 -0.7156 7.0161 0
M  V30 58 Ag 5.8287 -0.4051 -5.9255 0
M  V30 59 Fe 6.3057 -0.2339 -3.6053 0
M  V30 60 Ag 6.5983 0.4275 -1.3431 0
M  V30 61 Ag 6.4715 1.7254 -6.3440 0
M  V30 62 Fe 7.1171 2.2825 -4.1323 0
M  V30 63 Ag 7.3073 2.5433 -1.7843 0
M  V30 64 Ag -6.8651 -0.7102 2.0847 0
M  V30 65 Fe -6.2153 0.4753 4.0378 0
M  V30 66 Ag -5.3719 1.3604 6.0740 0
M  V30 67 Ag 4.4065 2.2692 -7.5069 0
M  V30 68 Fe 3.0683 3.9158 -6.4380 0
M  V30 69 Ag 1.7328 5.3845 -5.1323 0
M  V30 70 Ag 0.7635 2.8408 4.5664 0
M  V30 71 Fe -1.1654 2.5205 5.9169 0
M  V30 72 Ag -3.1247 2.0127 7.1618 0
M  V30 73 Ag 0.7863 3.1989 2.1672 0
M  V30 74 Fe 0.4230 4.2617 0.0733 0
M  V30 75 Ag 0.1220 5.2967 -2.0441 0
M  V30 76 Ag 2.2466 5.9197 -2.6066 0
M  V30 77 Fe 4.0076 4.8863 -1.3961 0
M  V30 78 Ag 5.6749 3.5632 -0.3458 0
M  V30 79 Ag -3.0523 -0.2153 8.0452 0
M  V30 80 Fe -1.2657 -1.4984 7.1609 0
M  V30 81 Ag 0.3870 -2.6643 5.9235 0
M  V30 82 Ba 2.6051 1.0448 4.2379 0
M  V30 83 Ga 2.4340 -0.4057 4.4517 0
M  V30 84 Ba 2.2287 -1.8548 4.6437 0
M  V30 85 Ba -2.1334 -4.6321 1.6692 0
M  V30 86 Ga -1.3411 -4.2567 2.8515 0
M  V30 87 Ba -0.5446 -3.8782 4.0300 0
M  V30 88 Ba -0.2905 -3.9520 0.2005 0
M  V30 89 Ga 0.4954 -3.5408 1.3876 0
M  V30 90 Ba 1.2844 -3.1292 2.5725 0
M  V30 91 Ba -3.6221 -4.9903 -0.1930 0
M  V30 92 Ga -4.9188 -4.4196 0.2272 0
M  V30 93 Ba -6.2057 -3.8319 0.6538 0
M  V30 94 Ba 2.5487 1.2982 1.9952 0
M  V30 95 Ga 3.7434 1.3069 1.1293 0
M  V30 96 Ba 4.8923 1.1589 0.2154 0
M  V30 97 Ba -1.7591 -4.5278 -1.8052 0
M  V30 98 Ga -1.7875 -3.7015 -3.0324 0
M  V30 99 Ba -1.7971 -2.9577 -4.3117 0
M  V30 END ATOM
M  V30 BEGIN BOND
M  V30 1 1 1 2
M  V30 2 1 1 3
M  V30 3 1 1 4
M  V30 4 1 1 5
M  V30 5 1 6 7
M  V30 6 1 6 8
M  V30 7 1 6 9
M  V30 8 1 6 10
M  V30 9 1 11 12
M  V30 10 1 11 13
M  V30 11 1 11 14
M  V30 12 1 11 15
M  V30 13 1 16 17
M  V30 14 1 16 18
M  V30 15 1 16 19
M  V30 16 1 16 20
M  V30 17 1 21 22
M  V30 18 1 21 23
M  V30 19 1 21 24
M  V30 20 1 21 25
M  V30 21 1 26 27
M  V30 22 1 26 28
M  V30 23 1 26 29
M  V30 24 1 26 30
M  V30 25 1 31 32
M  V30 26 1 31 33
M  V30 27 1 31 34
M  V30 28 1 31 35
M  V30 29 1 36 37
M  V30 30 1 36 38
M  V30 31 1 36 39
M  V30 32 1 36 40
M  V30 33 1 41 42
M  V30 34 1 41 43
M  V30 35 1 41 44
M  V30 36 1 41 45
M  V30 37 1 46 47
M  V30 38 1 47 48
M  V30 39 1 49 50
M  V30 40 1 50 51
M  V30 41 1 52 53
M  V30 42 1 53 54
M  V30 43 1 55 56
M  V30 44 1 56 57
M  V30 45 1 58 59
M  V30 46 1 59 60
M  V30 47 1 61 62
M  V30 48 1 62 63
M  V30 49 1 64 65
M  V30 50 1 65 66
M  V30 51 1 67 68
M  V30 52 1 68 69
M  V30 53 1 70 71
M  V30 54 1 71 72
M  V30 55 1 73 74
M  V30 56 1 74 75
M  V30 57 1 76 77
M  V30 58 1 77 78
M  V30 59 1 79 80
M  V30 60 1 80 81
M  V30 61 1 82 83
M  V30 62 1 83 84
M  V30 63 1 85 86
M  V30 64 1 86 87
M  V30 65 1 88 89
M  V30 66 1 89 90
M  V30 67 1 91 92
M  V30 68 1 92 93
M  V30 69 1 94 95
M  V30 70 1 95 96
M  V30 71 1 97 98
M  V30 72 1 98 99
M  V30 73 1 2 82
M  V30 74 1 3 94
M  V30 75 1 4 70
M  V30 76 1 5 73
M  V30 77 1 7 46
M  V30 78 1 8 61
M  V30 79 1 9 67
M  V30 80 1 10 58
M  V30 81 1 12 88
M  V30 82 1 13 97
M  V30 83 1 14 91
M  V30 84 1 15 85
M  V30 85 1 17 93
M  V30 86 1 18 55
M  V30 87 1 19 52
M  V30 88 1 20 64
M  V30 89 1 22 48
M  V30 90 1 23 99
M  V30 91 1 24 54
M  V30 92 1 25 49
M  V30 93 1 27 57
M  V30 94 1 28 79
M  V30 95 1 29 72
M  V30 96 1 30 66
M  V30 97 1 32 84
M  V30 98 1 33 81
M  V30 99 1 34 87
M  V30 100 1 35 90
M  V30 101 1 37 51
M  V30 102 1 38 76
M  V30 103 1 39 69
M  V30 104 1 40 75
M  V30 105 1 42 63
M  V30 106 1 43 96
M  V30 107 1 44 78
M  V30 108 1 45 60
M  V30 END BOND
M  V30 END CTAB
M  END

$$$$
