
     RDKit          3D

  0  0  0  0  0  0  0  0  0  0999 V3000
M  V30 BEGIN CTAB
M  V30 COUNTS 99 108 0 0 0
M  V30 BEGIN ATOM
M  V30 1 Pd 4.8608 2.7085 -2.4640 0
M  V30 2 Pb 5.5792 1.8975 -1.7127 0
M  V30 3 Pb 4.2948 3.5317 -3.3399 0
M  V30 4 Pb 5.0335 3.3844 -1.3534 0
M  V30 5 Pb 4.1724 1.8487 -3.2960 0
M  V30 6 Pd -5.7800 1.4643 -6.6820 0
M  V30 7 Pb -5.9431 0.7900 -5.6830 0
M  V30 8 Pb -5.4047 2.0465 -7.4257 0
M  V30 9 Pb -5.3577 0.7384 -6.9881 0
M  V30 10 Pb -5.5557 2.4063 -6.6670 0
M  V30 11 Pd 0.3523 -6.2942 5.4065 0
M  V30 12 Pb 1.3133 -6.2305 5.9399 0
M  V30 13 Pb -0.6219 -6.0032 4.6394 0
M  V30 14 Pb -0.3024 -5.9377 6.2194 0
M  V30 15 Pb 1.3279 -6.4413 4.9115 0
M  V30 16 Pd -3.1281 0.0746 7.3591 0
M  V30 17 Pb -3.0272 -0.9315 7.7657 0
M  V30 18 Pb -2.4351 0.5895 8.0705 0
M  V30 19 Pb -3.4274 -0.5007 6.2114 0
M  V30 20 Pb -2.8287 1.1511 7.2735 0
M  V30 21 Pd -4.7021 -3.0794 0.0764 0
M  V30 22 Pb -5.3787 -2.3931 -1.0395 0
M  V30 23 Pb -4.0178 -3.8342 1.0122 0
M  V30 24 Pb -4.7751 -2.7104 1.3786 0
M  V30 25 Pb -4.1997 -3.2087 -1.0971 0
M  V30 26 Pd 3.6490 3.8331 6.3526 0
M  V30 27 Pb 3.0995 3.5355 7.3101 0
M  V30 28 Pb 4.3999 3.0041 6.1476 0
M  V30 29 Pb 4.0097 4.2127 5.2240 0
M  V30 30 Pb 2.6628 4.1700 6.5558 0
M  V30 31 Pd 6.9108 -2.0778 4.5219 0
M  V30 32 Pb 7.2260 -1.4843 3.5439 0
M  V30 33 Pb 6.6325 -1.0164 4.8496 0
M  V30 34 Pb 6.6530 -3.0704 4.2839 0
M  V30 35 Pb 6.5687 -2.7867 5.3224 0
M  V30 36 Pd -0.7384 -1.5398 -6.3780 0
M  V30 37 Pb -1.4045 -2.0431 -5.4148 0
M  V30 38 Pb -0.3648 -1.1781 -7.4079 0
M  V30 39 Pb -1.7373 -1.4899 -6.8035 0
M  V30 40 Pb 0.2324 -1.0201 -5.8083 0
M  V30 41 Pd -1.4804 4.8898 -8.1079 0
M  V30 42 Pb -2.3783 4.5015 -8.5019 0
M  V30 43 Pb -0.5527 5.1181 -7.5130 0
M  V30 44 Pb -0.9592 4.4255 -8.6929 0
M  V30 45 Pb -2.3867 4.9049 -7.6161 0
M  V30 46 Ag 6.0192 1.4083 -1.1090 0
M  V30 47 Fe 6.4457 0.2523 1.0208 0
M  V30 48 Ag 7.2867 -1.0883 2.8879 0
M  V30 49 Ag -1.8323 1.0044 8.3628 0
M  V30 50 Fe 0.2908 2.2044 7.9912 0
M  V30 51 Ag 2.5289 3.2725 7.8306 0
M  V30 52 Ag 2.0989 -6.3663 4.6621 0
M  V30 53 Fe 4.1584 -4.9752 4.5458 0
M  V30 54 Ag 6.2625 -3.7239 4.2544 0
M  V30 55 Ag 2.0447 -6.0484 6.1373 0
M  V30 56 Fe 4.0974 -4.7247 5.8020 0
M  V30 57 Ag 6.1646 -3.3483 5.7393 0
M  V30 58 Ag -2.4076 1.8389 7.2332 0
M  V30 59 Fe -0.1866 2.9264 7.0194 0
M  V30 60 Ag 1.9221 4.1625 6.7331 0
M  V30 61 Ag -0.4848 -5.4529 6.6810 0
M  V30 62 Fe -1.5049 -3.3894 7.1323 0
M  V30 63 Ag -2.6346 -1.4888 7.9186 0
M  V30 64 Ag 4.9221 3.7008 -0.5113 0
M  V30 65 Fe 4.4733 3.8085 1.9530 0
M  V30 66 Ag 4.1876 4.3274 4.3989 0
M  V30 67 Ag -0.0349 -0.7434 -7.9312 0
M  V30 68 Fe -0.1513 1.6501 -8.2761 0
M  V30 69 Ag -0.5371 3.9594 -8.8862 0
M  V30 70 Ag 3.8255 3.9988 -3.9710 0
M  V30 71 Fe 1.9548 4.4756 -5.5549 0
M  V30 72 Ag 0.1375 5.2168 -7.0560 0
M  V30 73 Ba -6.0948 0.1470 -4.9653 0
M  V30 74 Ga -5.8300 -0.8557 -3.5245 0
M  V30 75 Ba -5.7421 -1.8812 -2.0111 0
M  V30 76 Ba -3.8459 -3.1714 -2.0130 0
M  V30 77 Ga -2.9205 -2.6579 -3.3278 0
M  V30 78 Ba -2.0031 -2.4198 -4.7523 0
M  V30 79 Ba -4.1103 -0.9684 5.4613 0
M  V30 80 Ga -4.1329 -1.7856 3.8438 0
M  V30 81 Ba -4.7511 -2.4830 2.3924 0
M  V30 82 Ba -5.2522 3.0060 -6.8307 0
M  V30 83 Ga -3.9543 3.5247 -7.1087 0
M  V30 84 Ba -3.0752 4.6312 -7.5000 0
M  V30 85 Ba -5.2020 2.5253 -7.8792 0
M  V30 86 Ga -4.0365 3.2735 -8.1261 0
M  V30 87 Ba -3.0224 4.2024 -8.5477 0
M  V30 88 Ba -4.9416 0.2769 -7.1957 0
M  V30 89 Ga -3.6431 -0.3336 -6.8817 0
M  V30 90 Ba -2.4534 -1.2643 -7.0183 0
M  V30 91 Ba 3.5338 1.3414 -4.0139 0
M  V30 92 Ga 2.1733 0.4324 -4.6858 0
M  V30 93 Ba 1.1060 -0.6039 -5.5598 0
M  V30 94 Ba 4.8046 2.2913 5.8441 0
M  V30 95 Ga 5.2649 0.9537 5.1758 0
M  V30 96 Ba 6.2262 -0.2813 5.0706 0
M  V30 97 Ba -1.3226 -5.6614 4.0126 0
M  V30 98 Ga -2.3621 -4.7613 2.9355 0
M  V30 99 Ba -3.5500 -4.2895 1.8143 0
M  V30 END ATOM
M  V30 BEGIN BOND
M  V30 1 1 1 2
M  V30 2 1 1 3
M  V30 3 1 1 4
M  V30 4 1 1 5
M  V30 5 1 6 7
M  V30 6 1 6 8
M  V30 7 1 6 9
M  V30 8 1 6 10
M  V30 9 1 11 12
M  V30 10 1 11 13
M  V30 11 1 11 14
M  V30 12 1 11 15
M  V30 13 1 16 17
M  V30 14 1 16 18
M  V30 15 1 16 19
M  V30 16 1 16 20
M  V30 17 1 21 22
M  V30 18 1 21 23
M  V30 19 1 21 24
M  V30 20 1 21 25
M  V30 21 1 26 27
M  V30 22 1 26 28
M  V30 23 1 26 29
M  V30 24 1 26 30
M  V30 25 1 31 32
M  V30 26 1 31 33
M  V30 27 1 31 34
M  V30 28 1 31 35
M  V30 29 1 36 37
M  V30 30 1 36 38
M  V30 31 1 36 39
M  V30 32 1 36 40
M  V30 33 1 41 42
M  V30 34 1 41 43
M  V30 35 1 41 44
M  V30 36 1 41 45
M  V30 37 1 46 47
M  V30 38 1 47 48
M  V30 39 1 49 50
M  V30 40 1 50 51
M  V30 41 1 52 53
M  V30 42 1 53 54
M  V30 43 1 55 56
M  V30 44 1 56 57
M  V30 45 1 58 59
M  V30 46 1 59 60
M  V30 47 1 61 62
M  V30 48 1 62 63
M  V30 49 1 64 65
M  V30 50 1 65 66
M  V30 51 1 67 68
M  V30 52 1 68 69
M  V30 53 1 70 71
M  V30 54 1 71 72
M  V30 55 1 73 74
M  V30 56 1 74 75
M  V30 57 1 76 77
M  V30 58 1 77 78
M  V30 59 1 79 80
M  V30 60 1 80 81
M  V30 61 1 82 83
M  V30 62 1 83 84
M  V30 63 1 85 86
M  V30 64 1 86 87
M  V30 65 1 88 89
M  V30 66 1 89 90
M  V30 67 1 91 92
M  V30 68 1 92 93
M  V30 69 1 94 95
M  V30 70 1 95 96
M  V30 71 1 97 98
M  V30 72 1 98 99
M  V30 73 1 2 46
M  V30 74 1 3 70
M  V30 75 1 4 64
M  V30 76 1 5 91
M  V30 77 1 7 73
M  V30 78 1 8 85
M  V30 79 1 9 88
M  V30 80 1 10 82
M  V30 81 1 12 55
M  V30 82 1 13 97
M  V30 83 1 14 61
M  V30 84 1 15 52
M  V30 85 1 17 63
M  V30 86 1 18 49
M  V30 87 1 19 79
M  V30 88 1 20 58
M  V30 89 1 22 75
M  V30 90 1 23 99
M  V30 91 1 24 81
M  V30 92 1 25 76
M  V30 93 1 27 51
M  V30 94 1 28 94
M  V30 95 1 29 66
M  V30 96 1 30 60
M  V30 97 1 32 48
M  V30 98 1 33 96
M  V30 99 1 34 54
M  V30 100 1 35 57
M  V30 101 1 37 78
M  V30 102 1 38 67
M  V30 103 1 39 90
M  V30 104 1 40 93
M  V30 105 1 42 87
M  V30 106 1 43 72
M  V30 107 1 44 69
M  V30 108 1 45 84
M  V30 END BOND
M  V30 END CTAB
M  END

$$$$
