
     RDKit          3D

  0  0  0  0  0  0  0  0  0  0999 V3000
M  V30 BEGIN CTAB
M  V30 COUNTS 99 108 0 0 0
M  V30 BEGIN ATOM
M  V30 1 Pd -2.5512 -6.8162 -2.7069 0
M  V30 2 Pb -2.9157 -7.1323 -1.8325 0
M  V30 3 Pb -1.7354 -7.3776 -2.5724 0
M  V30 4 Pb -3.3290 -6.2006 -2.8240 0
M  V30 5 Pb -2.1801 -6.4258 -3.5497 0
M  V30 6 Pd 2.3409 -5.5142 -0.9885 0
M  V30 7 Pb 2.1895 -5.7209 -0.0208 0
M  V30 8 Pb 1.8929 -6.3691 -1.2557 0
M  V30 9 Pb 2.4408 -5.2664 -1.9457 0
M  V30 10 Pb 2.8140 -4.6543 -0.7242 0
M  V30 11 Pd 1.0736 5.9405 4.6891 0
M  V30 12 Pb 0.2311 5.6760 4.2192 0
M  V30 13 Pb 0.9067 6.8969 4.4504 0
M  V30 14 Pb 1.2631 4.9769 4.8794 0
M  V30 15 Pb 2.0602 6.1446 4.7787 0
M  V30 16 Pd 3.9555 5.5256 0.6843 0
M  V30 17 Pb 3.2166 5.2397 0.0737 0
M  V30 18 Pb 3.7705 6.4824 0.4612 0
M  V30 19 Pb 4.3770 5.8179 1.5561 0
M  V30 20 Pb 4.1028 4.5734 0.9517 0
M  V30 21 Pd -0.6989 3.6004 -3.0814 0
M  V30 22 Pb -0.5501 3.2900 -4.0206 0
M  V30 23 Pb 0.2894 3.7076 -2.9655 0
M  V30 24 Pb -1.6827 3.4837 -3.2209 0
M  V30 25 Pb -0.8631 3.8878 -2.1359 0
M  V30 26 Pd -2.7624 -4.4456 4.3197 0
M  V30 27 Pb -2.4191 -3.6339 4.8242 0
M  V30 28 Pb -3.6622 -4.0233 4.2876 0
M  V30 29 Pb -1.8432 -4.8353 4.2610 0
M  V30 30 Pb -3.0958 -5.2158 3.7781 0
M  V30 31 Pd -1.7313 1.3840 4.1767 0
M  V30 32 Pb -0.7833 1.5754 4.4290 0
M  V30 33 Pb -1.7126 0.5351 4.7337 0
M  V30 34 Pb -2.6916 1.2140 3.9810 0
M  V30 35 Pb -1.7266 2.1795 3.5691 0
M  V30 36 Pd -3.0812 -0.2104 -5.5184 0
M  V30 37 Pb -2.6194 -1.0365 -5.8424 0
M  V30 38 Pb -2.3706 0.3803 -5.8992 0
M  V30 39 Pb -3.5173 0.5985 -5.1254 0
M  V30 40 Pb -3.7578 -0.8144 -5.1000 0
M  V30 41 Pd 3.5341 0.4554 -1.4894 0
M  V30 42 Pb 3.4005 1.3744 -1.8632 0
M  V30 43 Pb 3.7413 0.8586 -0.5992 0
M  V30 44 Pb 3.3741 0.0445 -2.3802 0
M  V30 45 Pb 3.6634 -0.4707 -1.0911 0
M  V30 46 Ag -3.8530 -5.6796 -2.9441 0
M  V30 47 Fe -4.1791 -3.5024 -3.8302 0
M  V30 48 Ag -4.1989 -1.3276 -4.7799 0
M  V30 49 Ag -3.1717 -7.3127 -1.1526 0
M  V30 50 Fe -3.2982 -6.6277 1.1162 0
M  V30 51 Ag -3.3161 -5.7747 3.3309 0
M  V30 52 Ag -1.0052 4.0878 -1.4252 0
M  V30 53 Fe -1.3557 3.4549 0.8388 0
M  V30 54 Ag -1.6960 2.7517 3.0835 0
M  V30 55 Ag -1.9477 -6.0486 -4.1552 0
M  V30 56 Fe -2.0416 -3.9167 -5.1986 0
M  V30 57 Ag -2.3042 -1.6978 -6.0050 0
M  V30 58 Ag -4.2387 -3.5647 4.2111 0
M  V30 59 Fe -4.2877 -1.2179 3.9970 0
M  V30 60 Ag -3.3824 0.9567 3.9008 0
M  V30 61 Ag 2.0425 -5.8355 0.7068 0
M  V30 62 Fe 0.4968 -5.5241 2.4840 0
M  V30 63 Ag -1.1634 -5.1271 4.1365 0
M  V30 64 Ag -0.1771 5.4607 3.6292 0
M  V30 65 Fe 0.7235 5.1098 1.4627 0
M  V30 66 Ag 2.5086 5.0666 -0.0991 0
M  V30 67 Ag 2.5041 -4.9383 -2.6069 0
M  V30 68 Fe 2.8746 -2.6959 -3.2352 0
M  V30 69 Ag 3.2715 -0.3862 -2.9745 0
M  V30 70 Ag 0.9079 7.5587 4.1117 0
M  V30 71 Fe 2.0872 8.0419 2.1333 0
M  V30 72 Ag 3.5172 7.1812 0.4742 0
M  V30 73 Ba 4.1963 3.8671 1.1861 0
M  V30 74 Ga 4.0549 2.5167 0.6118 0
M  V30 75 Ba 3.9222 1.1539 0.0650 0
M  V30 76 Ba 2.8113 6.2671 4.6972 0
M  V30 77 Ga 3.7133 6.1557 3.5053 0
M  V30 78 Ba 4.5545 6.0228 2.2719 0
M  V30 79 Ba 1.4170 4.2513 4.9932 0
M  V30 80 Ga 0.6723 2.9898 4.8217 0
M  V30 81 Ba -0.0839 1.7357 4.6460 0
M  V30 82 Ba -0.4643 3.0350 -4.7209 0
M  V30 83 Ga -1.1261 1.9479 -5.4656 0
M  V30 84 Ba -1.8344 0.8447 -6.1408 0
M  V30 85 Ba -2.1696 -3.0351 5.2299 0
M  V30 86 Ga -1.9472 -1.5618 5.1272 0
M  V30 87 Ba -1.6759 -0.0937 5.1680 0
M  V30 88 Ba -2.4129 3.3771 -3.3570 0
M  V30 89 Ga -3.1433 2.3137 -4.0717 0
M  V30 90 Ba -3.7994 1.2121 -4.8006 0
M  V30 91 Ba 3.2109 -4.0453 -0.4842 0
M  V30 92 Ga 3.4344 -2.5837 -0.6925 0
M  V30 93 Ba 3.8027 -1.1375 -0.7417 0
M  V30 94 Ba 1.0340 3.7853 -2.9078 0
M  V30 95 Ga 2.1626 2.9207 -2.5096 0
M  V30 96 Ba 3.3072 2.0754 -2.1162 0
M  V30 97 Ba -1.1102 -7.7720 -2.4491 0
M  V30 98 Ga 0.2318 -7.4024 -1.9590 0
M  V30 99 Ba 1.5674 -7.0127 -1.4670 0
M  V30 END ATOM
M  V30 BEGIN BOND
M  V30 1 1 1 2
M  V30 2 1 1 3
M  V30 3 1 1 4
M  V30 4 1 1 5
M  V30 5 1 6 7
M  V30 6 1 6 8
M  V30 7 1 6 9
M  V30 8 1 6 10
M  V30 9 1 11 12
M  V30 10 1 11 13
M  V30 11 1 11 14
M  V30 12 1 11 15
M  V30 13 1 16 17
M  V30 14 1 16 18
M  V30 15 1 16 19
M  V30 16 1 16 20
M  V30 17 1 21 22
M  V30 18 1 21 23
M  V30 19 1 21 24
M  V30 20 1 21 25
M  V30 21 1 26 27
M  V30 22 1 26 28
M  V30 23 1 26 29
M  V30 24 1 26 30
M  V30 25 1 31 32
M  V30 26 1 31 33
M  V30 27 1 31 34
M  V30 28 1 31 35
M  V30 29 1 36 37
M  V30 30 1 36 38
M  V30 31 1 36 39
M  V30 32 1 36 40
M  V30 33 1 41 42
M  V30 34 1 41 43
M  V30 35 1 41 44
M  V30 36 1 41 45
M  V30 37 1 46 47
M  V30 38 1 47 48
M  V30 39 1 49 50
M  V30 40 1 50 51
M  V30 41 1 52 53
M  V30 42 1 53 54
M  V30 43 1 55 56
M  V30 44 1 56 57
M  V30 45 1 58 59
M  V30 46 1 59 60
M  V30 47 1 61 62
M  V30 48 1 62 63
M  V30 49 1 64 65
M  V30 50 1 65 66
M  V30 51 1 67 68
M  V30 52 1 68 69
M  V30 53 1 70 71
M  V30 54 1 71 72
M  V30 55 1 73 74
M  V30 56 1 74 75
M  V30 57 1 76 77
M  V30 58 1 77 78
M  V30 59 1 79 80
M  V30 60 1 80 81
M  V30 61 1 82 83
M  V30 62 1 83 84
M  V30 63 1 85 86
M  V30 64 1 86 87
M  V30 65 1 88 89
M  V30 66 1 89 90
M  V30 67 1 91 92
M  V30 68 1 92 93
M  V30 69 1 94 95
M  V30 70 1 95 96
M  V30 71 1 97 98
M  V30 72 1 98 99
M  V30 73 1 2 49
M  V30 74 1 3 97
M  V30 75 1 4 46
M  V30 76 1 5 55
M  V30 77 1 7 61
M  V30 78 1 8 99
M  V30 79 1 9 67
M  V30 80 1 10 91
M  V30 81 1 12 64
M  V30 82 1 13 70
M  V30 83 1 14 79
M  V30 84 1 15 76
M  V30 85 1 17 66
M  V30 86 1 18 72
M  V30 87 1 19 78
M  V30 88 1 20 73
M  V30 89 1 22 82
M  V30 90 1 23 94
M  V30 91 1 24 88
M  V30 92 1 25 52
M  V30 93 1 27 85
M  V30 94 1 28 58
M  V30 95 1 29 63
M  V30 96 1 30 51
M  V30 97 1 32 81
M  V30 98 1 33 87
M  V30 99 1 34 60
M  V30 100 1 35 54
M  V30 101 1 37 57
M  V30 102 1 38 84
M  V30 103 1 39 90
M  V30 104 1 40 48
M  V30 105 1 42 96
M  V30 106 1 43 75
M  V30 107 1 44 69
M  V30 108 1 45 93
M  V30 END BOND
M  V30 END CTAB
M  END

$$$$
