
     RDKit          3D

  0  0  0  0  0  0  0  0  0  0999 V3000
M  V30 BEGIN CTAB
M  V30 COUNTS 99 108 0 0 0
M  V30 BEGIN ATOM
M  V30 1 Pd -2.2340 1.4705 0.8301 0
M  V30 2 Pb -1.4278 1.5014 1.4324 0
M  V30 3 Pb -2.7177 1.9354 1.5872 0
M  V30 4 Pb -3.0900 1.0859 0.4796 0
M  V30 5 Pb -2.7755 1.9996 0.1782 0
M  V30 6 Pd 4.9710 -2.9440 -3.7978 0
M  V30 7 Pb 4.6827 -3.0979 -4.7552 0
M  V30 8 Pb 5.0550 -3.9315 -3.6909 0
M  V30 9 Pb 5.2411 -2.8217 -2.8427 0
M  V30 10 Pb 4.7985 -1.9660 -3.9393 0
M  V30 11 Pd -0.9667 0.8127 6.2589 0
M  V30 12 Pb -1.7736 1.3599 6.4687 0
M  V30 13 Pb -0.3941 1.6356 6.2468 0
M  V30 14 Pb -1.5620 -0.0037 6.2330 0
M  V30 15 Pb -0.1919 0.2126 6.0478 0
M  V30 16 Pd 0.5576 -4.6530 -6.8567 0
M  V30 17 Pb 0.9296 -5.5153 -6.5220 0
M  V30 18 Pb -0.3494 -4.8781 -6.5103 0
M  V30 19 Pb 0.2048 -3.7620 -7.1424 0
M  V30 20 Pb 1.4989 -4.3554 -7.0573 0
M  V30 21 Pd -5.0629 -1.5312 3.1585 0
M  V30 22 Pb -5.6255 -0.9120 3.7003 0
M  V30 23 Pb -5.4687 -1.2124 2.3088 0
M  V30 24 Pb -4.4105 -2.0363 2.5957 0
M  V30 25 Pb -4.5513 -1.7611 3.9959 0
M  V30 26 Pd -1.0520 5.6407 3.5749 0
M  V30 27 Pb -1.8579 5.1040 3.8306 0
M  V30 28 Pb -0.2333 5.9476 3.1000 0
M  V30 29 Pb -0.4950 5.1822 4.2733 0
M  V30 30 Pb -1.6052 6.0792 2.8678 0
M  V30 31 Pd 2.5347 2.2153 -2.0757 0
M  V30 32 Pb 2.9171 1.6000 -2.7705 0
M  V30 33 Pb 3.4051 2.2296 -1.5982 0
M  V30 34 Pb 1.6138 2.1693 -2.4724 0
M  V30 35 Pb 2.2675 2.9408 -1.4355 0
M  V30 36 Pd -1.6462 -1.4440 -3.7893 0
M  V30 37 Pb -1.3778 -0.5006 -3.5656 0
M  V30 38 Pb -1.7657 -1.7124 -2.8311 0
M  V30 39 Pb -1.4958 -1.2441 -4.7567 0
M  V30 40 Pb -1.9556 -2.3599 -4.0552 0
M  V30 41 Pd 3.2051 0.1915 2.6793 0
M  V30 42 Pb 3.8928 -0.4888 2.4403 0
M  V30 43 Pb 2.4559 0.8368 2.8274 0
M  V30 44 Pb 3.6944 0.7933 2.0478 0
M  V30 45 Pb 2.7943 -0.3894 3.3799 0
M  V30 46 Ag 4.9517 -4.6662 -3.7214 0
M  V30 47 Fe 3.2576 -5.8624 -4.8456 0
M  V30 48 Ag 1.3331 -6.0484 -6.1976 0
M  V30 49 Ag -2.4609 1.6335 6.5459 0
M  V30 50 Fe -4.5004 0.9559 5.5702 0
M  V30 51 Ag -5.8471 -0.3715 4.1586 0
M  V30 52 Ag -3.1013 2.5779 -0.1544 0
M  V30 53 Fe -2.9096 4.7812 0.6550 0
M  V30 54 Ag -2.0337 6.2437 2.2817 0
M  V30 55 Ag 0.3340 6.0273 2.6211 0
M  V30 56 Fe 1.3040 4.8122 0.8230 0
M  V30 57 Ag 2.1990 3.5287 -0.9668 0
M  V30 58 Ag -3.8976 -2.3295 2.1348 0
M  V30 59 Fe -2.8731 -2.1727 -0.0037 0
M  V30 60 Ag -1.8512 -2.0042 -2.1426 0
M  V30 61 Ag 5.4258 -2.7750 -2.1171 0
M  V30 62 Fe 4.9842 -1.9193 0.0521 0
M  V30 63 Ag 4.3883 -0.9588 2.1387 0
M  V30 64 Ba -1.0095 -4.9639 -6.1712 0
M  V30 65 Ga -1.6519 -4.0361 -5.2218 0
M  V30 66 Ba -2.1970 -3.0342 -4.2865 0
M  V30 67 Ba 0.0216 2.2629 6.2329 0
M  V30 68 Ga -0.0342 3.5497 5.5047 0
M  V30 69 Ba -0.0632 4.8463 4.7923 0
M  V30 70 Ba -3.0562 2.2773 2.1777 0
M  V30 71 Ga -2.7717 3.4479 3.0499 0
M  V30 72 Ba -2.4406 4.6292 3.8902 0
M  V30 73 Ba -0.0683 -3.0828 -7.3053 0
M  V30 74 Ga -0.7217 -2.0801 -6.4445 0
M  V30 75 Ba -1.3610 -1.1576 -5.4886 0
M  V30 76 Ba 0.9014 2.1512 -2.7180 0
M  V30 77 Ga -0.1224 1.1454 -3.0851 0
M  V30 78 Ba -1.2238 0.2337 -3.4721 0
M  V30 79 Ba -0.8836 1.6812 1.9281 0
M  V30 80 Ga 0.5004 1.4234 2.3853 0
M  V30 81 Ba 1.8605 1.2760 2.9520 0
M  V30 82 Ba -3.7528 0.8260 0.2385 0
M  V30 83 Ga -4.7557 -0.0468 0.8689 0
M  V30 84 Ba -5.6400 -0.9329 1.6410 0
M  V30 85 Ba 4.4921 -3.2129 -5.4833 0
M  V30 86 Ga 3.3327 -3.6708 -6.2954 0
M  V30 87 Ba 2.2112 -4.1194 -7.1642 0
M  V30 88 Ba -1.9996 -0.6257 6.2267 0
M  V30 89 Ga -3.0755 -1.2386 5.4027 0
M  V30 90 Ba -4.1532 -1.9062 4.6247 0
M  V30 91 Ba 4.6260 -1.2615 -4.1426 0
M  V30 92 Ga 3.9322 -0.0495 -3.6538 0
M  V30 93 Ba 3.2763 1.2350 -3.3239 0
M  V30 94 Ba 3.9947 2.2495 -1.1463 0
M  V30 95 Ga 4.0988 1.7276 0.2252 0
M  V30 96 Ba 4.1430 1.1897 1.5940 0
M  V30 97 Ba 0.3369 -0.3011 5.8963 0
M  V30 98 Ga 1.4152 -0.5267 4.9137 0
M  V30 99 Ba 2.5018 -0.7808 3.9473 0
M  V30 END ATOM
M  V30 BEGIN BOND
M  V30 1 1 1 2
M  V30 2 1 1 3
M  V30 3 1 1 4
M  V30 4 1 1 5
M  V30 5 1 6 7
M  V30 6 1 6 8
M  V30 7 1 6 9
M  V30 8 1 6 10
M  V30 9 1 11 12
M  V30 10 1 11 13
M  V30 11 1 11 14
M  V30 12 1 11 15
M  V30 13 1 16 17
M  V30 14 1 16 18
M  V30 15 1 16 19
M  V30 16 1 16 20
M  V30 17 1 21 22
M  V30 18 1 21 23
M  V30 19 1 21 24
M  V30 20 1 21 25
M  V30 21 1 26 27
M  V30 22 1 26 28
M  V30 23 1 26 29
M  V30 24 1 26 30
M  V30 25 1 31 32
M  V30 26 1 31 33
M  V30 27 1 31 34
M  V30 28 1 31 35
M  V30 29 1 36 37
M  V30 30 1 36 38
M  V30 31 1 36 39
M  V30 32 1 36 40
M  V30 33 1 41 42
M  V30 34 1 41 43
M  V30 35 1 41 44
M  V30 36 1 41 45
M  V30 37 1 46 47
M  V30 38 1 47 48
M  V30 39 1 49 50
M  V30 40 1 50 51
M  V30 41 1 52 53
M  V30 42 1 53 54
M  V30 43 1 55 56
M  V30 44 1 56 57
M  V30 45 1 58 59
M  V30 46 1 59 60
M  V30 47 1 61 62
M  V30 48 1 62 63
M  V30 49 1 64 65
M  V30 50 1 65 66
M  V30 51 1 67 68
M  V30 52 1 68 69
M  V30 53 1 70 71
M  V30 54 1 71 72
M  V30 55 1 73 74
M  V30 56 1 74 75
M  V30 57 1 76 77
M  V30 58 1 77 78
M  V30 59 1 79 80
M  V30 60 1 80 81
M  V30 61 1 82 83
M  V30 62 1 83 84
M  V30 63 1 85 86
M  V30 64 1 86 87
M  V30 65 1 88 89
M  V30 66 1 89 90
M  V30 67 1 91 92
M  V30 68 1 92 93
M  V30 69 1 94 95
M  V30 70 1 95 96
M  V30 71 1 97 98
M  V30 72 1 98 99
M  V30 73 1 2 79
M  V30 74 1 3 70
M  V30 75 1 4 82
M  V30 76 1 5 52
M  V30 77 1 7 85
M  V30 78 1 8 46
M  V30 79 1 9 61
M  V30 80 1 10 91
M  V30 81 1 12 49
M  V30 82 1 13 67
M  V30 83 1 14 88
M  V30 84 1 15 97
M  V30 85 1 17 48
M  V30 86 1 18 64
M  V30 87 1 19 73
M  V30 88 1 20 87
M  V30 89 1 22 51
M  V30 90 1 23 84
M  V30 91 1 24 58
M  V30 92 1 25 90
M  V30 93 1 27 72
M  V30 94 1 28 55
M  V30 95 1 29 69
M  V30 96 1 30 54
M  V30 97 1 32 93
M  V30 98 1 33 94
M  V30 99 1 34 76
M  V30 100 1 35 57
M  V30 101 1 37 78
M  V30 102 1 38 60
M  V30 103 1 39 75
M  V30 104 1 40 66
M  V30 105 1 42 63
M  V30 106 1 43 81
M  V30 107 1 44 96
M  V30 108 1 45 99
M  V30 END BOND
M  V30 END CTAB
M  END

$$$$
