
     RDKit          3D

  0  0  0  0  0  0  0  0  0  0999 V3000
M  V30 BEGIN CTAB
M  V30 COUNTS 99 108 0 0 0
M  V30 BEGIN ATOM
M  V30 1 Pd 4.7004 -5.0391 -3.7544 0
M  V30 2 Pb 4.1313 -4.8611 -4.5578 0
M  V30 3 Pb 5.2050 -4.1889 -3.9006 0
M  V30 4 Pb 5.1590 -5.1626 -2.8736 0
M  V30 5 Pb 4.1983 -5.8844 -3.5804 0
M  V30 6 Pd -5.6766 -0.9864 5.0065 0
M  V30 7 Pb -5.7094 -1.1213 5.9928 0
M  V30 8 Pb -6.1866 -0.1368 5.0985 0
M  V30 9 Pb -5.5989 -0.7723 4.0312 0
M  V30 10 Pb -4.9517 -1.6882 4.9471 0
M  V30 11 Pd -0.2065 -0.7879 6.0053 0
M  V30 12 Pb -0.6221 -0.7812 6.9104 0
M  V30 13 Pb 0.2262 -0.8456 5.1062 0
M  V30 14 Pb -0.8999 -1.4703 5.7125 0
M  V30 15 Pb 0.3990 -0.0370 6.2785 0
M  V30 16 Pd 1.9524 -5.3794 0.0731 0
M  V30 17 Pb 1.8648 -4.5145 0.5701 0
M  V30 18 Pb 2.9437 -5.3799 0.2124 0
M  V30 19 Pb 2.0572 -6.1957 -0.4902 0
M  V30 20 Pb 0.9871 -5.3644 -0.1825 0
M  V30 21 Pd -2.2763 -2.4774 -5.3525 0
M  V30 22 Pb -3.1432 -2.1231 -5.0160 0
M  V30 23 Pb -2.2976 -3.1742 -4.6359 0
M  V30 24 Pb -1.4032 -2.8310 -5.6977 0
M  V30 25 Pb -2.2270 -1.6909 -5.9918 0
M  V30 26 Pd 1.5839 3.9993 3.8295 0
M  V30 27 Pb 1.5764 3.5310 4.7169 0
M  V30 28 Pb 2.3298 3.4037 3.5230 0
M  V30 29 Pb 0.8575 4.6421 4.0892 0
M  V30 30 Pb 1.6389 4.4460 2.9396 0
M  V30 31 Pd -3.2615 4.8185 1.9603 0
M  V30 32 Pb -3.9108 4.6187 2.6938 0
M  V30 33 Pb -3.7093 4.0824 1.4539 0
M  V30 34 Pb -2.6925 5.0562 1.1709 0
M  V30 35 Pb -2.7361 5.4184 2.5651 0
M  V30 36 Pd 4.9197 2.5048 -2.5152 0
M  V30 37 Pb 5.1066 2.2285 -1.5713 0
M  V30 38 Pb 5.4233 1.7260 -2.8867 0
M  V30 39 Pb 4.3773 3.2539 -2.1412 0
M  V30 40 Pb 4.6221 2.7633 -3.4310 0
M  V30 41 Pd -1.7362 3.2558 -5.3481 0
M  V30 42 Pb -1.8531 2.4759 -5.9868 0
M  V30 43 Pb -0.7910 3.3699 -5.6499 0
M  V30 44 Pb -2.6685 3.1164 -5.0295 0
M  V30 45 Pb -1.5880 3.9369 -4.6296 0
M  V30 46 Ag 0.2952 -5.3660 -0.4692 0
M  V30 47 Fe -1.0740 -4.5457 -2.2271 0
M  V30 48 Ag -2.3012 -3.6353 -4.0445 0
M  V30 49 Ag 5.5839 -3.5475 -3.9827 0
M  V30 50 Fe 5.7120 -1.2082 -3.5986 0
M  V30 51 Ag 5.7675 1.1275 -3.1773 0
M  V30 52 Ag -5.5371 -0.5080 3.3303 0
M  V30 53 Fe -4.8310 1.3963 2.0970 0
M  V30 54 Ag -4.0251 3.4477 1.2097 0
M  V30 55 Ag -5.5424 -1.1656 6.7131 0
M  V30 56 Fe -3.3981 -1.0317 7.6765 0
M  V30 57 Ag -1.0581 -0.8239 7.5093 0
M  V30 58 Ag 0.5486 -0.9287 4.4347 0
M  V30 59 Fe 1.1784 -2.3934 2.6736 0
M  V30 60 Ag 1.8166 -3.8421 0.9022 0
M  V30 61 Ag -2.3201 5.2542 0.5483 0
M  V30 62 Fe -1.8616 4.8584 -1.7503 0
M  V30 63 Ag -1.4570 4.3910 -4.0455 0
M  V30 64 Ag 3.6417 -4.7043 -5.1051 0
M  V30 65 Fe 1.4544 -3.9040 -5.5832 0
M  V30 66 Ag -0.7482 -3.0929 -5.9621 0
M  V30 67 Ag 1.7389 4.7347 2.2580 0
M  V30 68 Fe 2.7998 4.3668 0.1693 0
M  V30 69 Ag 3.9504 3.7754 -1.8181 0
M  V30 70 Ag 2.8973 3.0020 3.2350 0
M  V30 71 Fe 4.0977 2.4584 1.2560 0
M  V30 72 Ag 5.1455 2.0588 -0.8404 0
M  V30 73 Ag -6.3896 0.5799 5.1255 0
M  V30 74 Fe -5.5627 2.6177 4.2369 0
M  V30 75 Ag -4.4538 4.4255 3.1735 0
M  V30 76 Ag -3.7263 -1.7248 -4.7906 0
M  V30 77 Fe -4.0217 0.6059 -4.6172 0
M  V30 78 Ag -3.3210 2.8468 -4.8055 0
M  V30 79 Ag 4.3010 2.9519 -4.0785 0
M  V30 80 Fe 2.1701 3.2316 -5.0823 0
M  V30 81 Ag -0.0693 3.4359 -5.8376 0
M  V30 82 Ba 5.4121 -5.2373 -2.1706 0
M  V30 83 Ga 4.6241 -5.3205 -0.9245 0
M  V30 84 Ba 3.6947 -5.3915 0.2208 0
M  V30 85 Ba -4.3548 -2.1621 4.9283 0
M  V30 86 Ga -2.8931 -2.0455 5.2149 0
M  V30 87 Ba -1.4260 -1.9804 5.4892 0
M  V30 88 Ba -2.1970 -1.0920 -6.4665 0
M  V30 89 Ga -2.0624 0.3949 -6.4128 0
M  V30 90 Ba -1.9333 1.8824 -6.4625 0
M  V30 91 Ba 3.8188 -6.4993 -3.3864 0
M  V30 92 Ga 2.9725 -6.7170 -2.2036 0
M  V30 93 Ba 2.1665 -6.7538 -0.9743 0
M  V30 94 Ba 0.8036 0.5569 6.5030 0
M  V30 95 Ga 1.2083 1.8549 5.9197 0
M  V30 96 Ba 1.6313 3.1626 5.3721 0
M  V30 97 Ba 0.3344 5.1687 4.2247 0
M  V30 98 Ga -0.9939 5.4940 3.6592 0
M  V30 99 Ba -2.3202 5.7863 3.0717 0
M  V30 END ATOM
M  V30 BEGIN BOND
M  V30 1 1 1 2
M  V30 2 1 1 3
M  V30 3 1 1 4
M  V30 4 1 1 5
M  V30 5 1 6 7
M  V30 6 1 6 8
M  V30 7 1 6 9
M  V30 8 1 6 10
M  V30 9 1 11 12
M  V30 10 1 11 13
M  V30 11 1 11 14
M  V30 12 1 11 15
M  V30 13 1 16 17
M  V30 14 1 16 18
M  V30 15 1 16 19
M  V30 16 1 16 20
M  V30 17 1 21 22
M  V30 18 1 21 23
M  V30 19 1 21 24
M  V30 20 1 21 25
M  V30 21 1 26 27
M  V30 22 1 26 28
M  V30 23 1 26 29
M  V30 24 1 26 30
M  V30 25 1 31 32
M  V30 26 1 31 33
M  V30 27 1 31 34
M  V30 28 1 31 35
M  V30 29 1 36 37
M  V30 30 1 36 38
M  V30 31 1 36 39
M  V30 32 1 36 40
M  V30 33 1 41 42
M  V30 34 1 41 43
M  V30 35 1 41 44
M  V30 36 1 41 45
M  V30 37 1 46 47
M  V30 38 1 47 48
M  V30 39 1 49 50
M  V30 40 1 50 51
M  V30 41 1 52 53
M  V30 42 1 53 54
M  V30 43 1 55 56
M  V30 44 1 56 57
M  V30 45 1 58 59
M  V30 46 1 59 60
M  V30 47 1 61 62
M  V30 48 1 62 63
M  V30 49 1 64 65
M  V30 50 1 65 66
M  V30 51 1 67 68
M  V30 52 1 68 69
M  V30 53 1 70 71
M  V30 54 1 71 72
M  V30 55 1 73 74
M  V30 56 1 74 75
M  V30 57 1 76 77
M  V30 58 1 77 78
M  V30 59 1 79 80
M  V30 60 1 80 81
M  V30 61 1 82 83
M  V30 62 1 83 84
M  V30 63 1 85 86
M  V30 64 1 86 87
M  V30 65 1 88 89
M  V30 66 1 89 90
M  V30 67 1 91 92
M  V30 68 1 92 93
M  V30 69 1 94 95
M  V30 70 1 95 96
M  V30 71 1 97 98
M  V30 72 1 98 99
M  V30 73 1 2 64
M  V30 74 1 3 49
M  V30 75 1 4 82
M  V30 76 1 5 91
M  V30 77 1 7 55
M  V30 78 1 8 73
M  V30 79 1 9 52
M  V30 80 1 10 85
M  V30 81 1 12 57
M  V30 82 1 13 58
M  V30 83 1 14 87
M  V30 84 1 15 94
M  V30 85 1 17 60
M  V30 86 1 18 84
M  V30 87 1 19 93
M  V30 88 1 20 46
M  V30 89 1 22 76
M  V30 90 1 23 48
M  V30 91 1 24 66
M  V30 92 1 25 88
M  V30 93 1 27 96
M  V30 94 1 28 70
M  V30 95 1 29 97
M  V30 96 1 30 67
M  V30 97 1 32 75
M  V30 98 1 33 54
M  V30 99 1 34 61
M  V30 100 1 35 99
M  V30 101 1 37 72
M  V30 102 1 38 51
M  V30 103 1 39 69
M  V30 104 1 40 79
M  V30 105 1 42 90
M  V30 106 1 43 81
M  V30 107 1 44 78
M  V30 108 1 45 63
M  V30 END BOND
M  V30 END CTAB
M  END

$$$$
