
     RDKit          3D

  0  0  0  0  0  0  0  0  0  0999 V3000
M  V30 BEGIN CTAB
M  V30 COUNTS 99 108 0 0 0
M  V30 BEGIN ATOM
M  V30 1 Pd -3.9664 -3.2153 -0.5321 0
M  V30 2 Pb -3.8084 -4.1932 -0.4202 0
M  V30 3 Pb -3.9834 -3.0848 0.4630 0
M  V30 4 Pb -3.7532 -3.2964 -1.5203 0
M  V30 5 Pb -4.1986 -2.2626 -0.6954 0
M  V30 6 Pd 5.8231 5.4326 -0.6077 0
M  V30 7 Pb 6.2071 4.6232 -0.1669 0
M  V30 8 Pb 6.6876 5.5360 -1.0933 0
M  V30 9 Pb 4.9628 5.3639 -0.0969 0
M  V30 10 Pb 5.3915 6.0713 -1.2602 0
M  V30 11 Pd -1.7783 3.8592 -0.1411 0
M  V30 12 Pb -2.5468 3.4056 -0.5742 0
M  V30 13 Pb -1.2953 3.8571 -1.0177 0
M  V30 14 Pb -2.3279 3.8099 0.6965 0
M  V30 15 Pb -0.9759 4.2475 0.3152 0
M  V30 16 Pd 4.1419 4.2301 -5.4208 0
M  V30 17 Pb 5.0850 4.3966 -5.6989 0
M  V30 18 Pb 4.1172 5.1348 -4.9695 0
M  V30 19 Pb 3.1945 4.0719 -5.1436 0
M  V30 20 Pb 4.2604 3.2656 -5.6520 0
M  V30 21 Pd -2.1367 -6.2817 3.0221 0
M  V30 22 Pb -1.4855 -6.3408 3.7710 0
M  V30 23 Pb -2.7956 -5.9559 2.3400 0
M  V30 24 Pb -2.9013 -6.2600 3.6667 0
M  V30 25 Pb -1.3389 -6.1693 2.4193 0
M  V30 26 Pd -1.0733 -0.2916 3.6024 0
M  V30 27 Pb -0.2296 0.2257 3.4986 0
M  V30 28 Pb -0.9689 0.3925 4.3230 0
M  V30 29 Pb -0.6054 -0.9595 4.1792 0
M  V30 30 Pb -1.7222 -1.0049 3.2969 0
M  V30 31 Pd 0.6318 -3.6990 -3.0608 0
M  V30 32 Pb 0.4484 -4.6792 -3.0655 0
M  V30 33 Pb 0.7838 -2.7064 -3.0142 0
M  V30 34 Pb -0.2490 -3.5411 -3.5238 0
M  V30 35 Pb 1.2867 -3.9170 -2.3451 0
M  V30 36 Pd 4.1429 0.8105 -1.7764 0
M  V30 37 Pb 3.2343 0.5358 -2.1017 0
M  V30 38 Pb 5.0294 1.0934 -1.3984 0
M  V30 39 Pb 3.7956 0.9636 -0.8534 0
M  V30 40 Pb 4.4663 0.7020 -2.7211 0
M  V30 41 Pd -6.1259 -0.7827 4.3782 0
M  V30 42 Pb -5.9663 -0.2894 5.2340 0
M  V30 43 Pb -6.1089 -1.3075 3.5205 0
M  V30 44 Pb -6.2282 -1.6686 4.8298 0
M  V30 45 Pb -5.8801 0.0913 3.9447 0
M  V30 46 Ag -0.6931 -6.0231 2.0524 0
M  V30 47 Fe 0.5540 -5.1341 0.2313 0
M  V30 48 Ag 1.5612 -4.2029 -1.7119 0
M  V30 49 Ag -4.3798 -1.5633 -0.8750 0
M  V30 50 Fe -3.8332 0.7389 -0.9072 0
M  V30 51 Ag -3.1045 2.9887 -0.8289 0
M  V30 52 Ag -3.5970 -4.9022 -0.4777 0
M  V30 53 Fe -1.7498 -5.7797 -1.6402 0
M  V30 54 Ag 0.1825 -5.3534 -2.9111 0
M  V30 55 Ag 7.2443 5.5745 -1.5818 0
M  V30 56 Fe 7.1489 5.1609 -3.8939 0
M  V30 57 Ag 5.8087 4.5534 -5.7266 0
M  V30 58 Ag -1.1689 0.7965 4.9165 0
M  V30 59 Fe -3.3631 0.8006 5.7992 0
M  V30 60 Ag -5.6310 0.1285 5.7552 0
M  V30 61 Ag -3.3242 -5.5766 1.9580 0
M  V30 62 Fe -4.7505 -3.6958 2.2828 0
M  V30 63 Ag -6.0101 -1.7829 2.9404 0
M  V30 64 Ag -3.4818 -6.1241 4.1222 0
M  V30 65 Fe -4.9500 -4.3630 4.7412 0
M  V30 66 Ag -6.2020 -2.3741 5.0819 0
M  V30 67 Ag -2.8358 3.7243 1.2477 0
M  V30 68 Fe -4.2223 2.2391 2.4903 0
M  V30 69 Ag -5.6233 0.7730 3.7395 0
M  V30 70 Ag -1.0044 -6.1146 4.2876 0
M  V30 71 Fe -0.3911 -3.8742 4.7304 0
M  V30 72 Ag -0.2998 -1.5147 4.5761 0
M  V30 73 Ag -0.9918 3.8184 -1.7036 0
M  V30 74 Fe 0.7835 3.9079 -3.2792 0
M  V30 75 Ag 2.4795 3.9728 -4.9411 0
M  V30 76 Ag 0.4101 0.5728 3.3385 0
M  V30 77 Fe 2.0206 0.8787 1.6255 0
M  V30 78 Ag 3.5673 1.1126 -0.1566 0
M  V30 79 Ag 4.3181 5.3557 0.2919 0
M  V30 80 Fe 1.9856 4.9287 0.4667 0
M  V30 81 Ag -0.3466 4.4996 0.6397 0
M  V30 82 Ba 6.4994 3.9553 0.0098 0
M  V30 83 Ga 6.0992 2.6140 -0.4713 0
M  V30 84 Ba 5.6332 1.3124 -1.0007 0
M  V30 85 Ba 4.4198 2.5345 -5.7036 0
M  V30 86 Ga 4.5334 1.5412 -4.6134 0
M  V30 87 Ba 4.6219 0.6244 -3.4557 0
M  V30 88 Ba -3.9266 -3.0006 1.2108 0
M  V30 89 Ga -3.0689 -2.2274 2.1461 0
M  V30 90 Ba -2.2762 -1.5145 3.1808 0
M  V30 91 Ba -3.5450 -3.3127 -2.2561 0
M  V30 92 Ga -2.2610 -3.3883 -3.0149 0
M  V30 93 Ba -0.9683 -3.4664 -3.7585 0
M  V30 94 Ba 0.8213 -1.9523 -3.0002 0
M  V30 95 Ga 1.7349 -0.8390 -2.6588 0
M  V30 96 Ba 2.5470 0.3606 -2.3548 0
M  V30 97 Ba 5.0657 6.4777 -1.8159 0
M  V30 98 Ga 4.5927 6.1410 -3.1911 0
M  V30 99 Ba 4.1271 5.7799 -4.5627 0
M  V30 END ATOM
M  V30 BEGIN BOND
M  V30 1 1 1 2
M  V30 2 1 1 3
M  V30 3 1 1 4
M  V30 4 1 1 5
M  V30 5 1 6 7
M  V30 6 1 6 8
M  V30 7 1 6 9
M  V30 8 1 6 10
M  V30 9 1 11 12
M  V30 10 1 11 13
M  V30 11 1 11 14
M  V30 12 1 11 15
M  V30 13 1 16 17
M  V30 14 1 16 18
M  V30 15 1 16 19
M  V30 16 1 16 20
M  V30 17 1 21 22
M  V30 18 1 21 23
M  V30 19 1 21 24
M  V30 20 1 21 25
M  V30 21 1 26 27
M  V30 22 1 26 28
M  V30 23 1 26 29
M  V30 24 1 26 30
M  V30 25 1 31 32
M  V30 26 1 31 33
M  V30 27 1 31 34
M  V30 28 1 31 35
M  V30 29 1 36 37
M  V30 30 1 36 38
M  V30 31 1 36 39
M  V30 32 1 36 40
M  V30 33 1 41 42
M  V30 34 1 41 43
M  V30 35 1 41 44
M  V30 36 1 41 45
M  V30 37 1 46 47
M  V30 38 1 47 48
M  V30 39 1 49 50
M  V30 40 1 50 51
M  V30 41 1 52 53
M  V30 42 1 53 54
M  V30 43 1 55 56
M  V30 44 1 56 57
M  V30 45 1 58 59
M  V30 46 1 59 60
M  V30 47 1 61 62
M  V30 48 1 62 63
M  V30 49 1 64 65
M  V30 50 1 65 66
M  V30 51 1 67 68
M  V30 52 1 68 69
M  V30 53 1 70 71
M  V30 54 1 71 72
M  V30 55 1 73 74
M  V30 56 1 74 75
M  V30 57 1 76 77
M  V30 58 1 77 78
M  V30 59 1 79 80
M  V30 60 1 80 81
M  V30 61 1 82 83
M  V30 62 1 83 84
M  V30 63 1 85 86
M  V30 64 1 86 87
M  V30 65 1 88 89
M  V30 66 1 89 90
M  V30 67 1 91 92
M  V30 68 1 92 93
M  V30 69 1 94 95
M  V30 70 1 95 96
M  V30 71 1 97 98
M  V30 72 1 98 99
M  V30 73 1 2 52
M  V30 74 1 3 88
M  V30 75 1 4 91
M  V30 76 1 5 49
M  V30 77 1 7 82
M  V30 78 1 8 55
M  V30 79 1 9 79
M  V30 80 1 10 97
M  V30 81 1 12 51
M  V30 82 1 13 73
M  V30 83 1 14 67
M  V30 84 1 15 81
M  V30 85 1 17 57
M  V30 86 1 18 99
M  V30 87 1 19 75
M  V30 88 1 20 85
M  V30 89 1 22 70
M  V30 90 1 23 61
M  V30 91 1 24 64
M  V30 92 1 25 46
M  V30 93 1 27 76
M  V30 94 1 28 58
M  V30 95 1 29 72
M  V30 96 1 30 90
M  V30 97 1 32 54
M  V30 98 1 33 94
M  V30 99 1 34 93
M  V30 100 1 35 48
M  V30 101 1 37 96
M  V30 102 1 38 84
M  V30 103 1 39 78
M  V30 104 1 40 87
M  V30 105 1 42 60
M  V30 106 1 43 63
M  V30 107 1 44 66
M  V30 108 1 45 69
M  V30 END BOND
M  V30 END CTAB
M  END

$$$$
