
     RDKit          3D

  0  0  0  0  0  0  0  0  0  0999 V3000
M  V30 BEGIN CTAB
M  V30 COUNTS 99 108 0 0 0
M  V30 BEGIN ATOM
M  V30 1 Pd -4.9963 -6.0975 -3.4160 0
M  V30 2 Pb -5.9375 -5.7696 -3.5537 0
M  V30 3 Pb -5.1926 -6.0793 -2.4361 0
M  V30 4 Pb -4.0445 -6.3627 -3.2701 0
M  V30 5 Pb -4.8401 -5.8838 -4.3798 0
M  V30 6 Pd -3.9673 0.9593 0.0535 0
M  V30 7 Pb -4.6191 0.2289 0.2250 0
M  V30 8 Pb -3.6704 1.9026 0.2020 0
M  V30 9 Pb -4.5403 1.2741 -0.7045 0
M  V30 10 Pb -3.8123 0.0459 -0.3729 0
M  V30 11 Pd 3.6662 -2.9186 -1.9723 0
M  V30 12 Pb 3.3523 -3.5972 -1.3083 0
M  V30 13 Pb 4.4481 -2.6821 -1.3638 0
M  V30 14 Pb 3.6352 -1.9770 -2.3165 0
M  V30 15 Pb 4.2324 -2.6976 -2.7590 0
M  V30 16 Pd 7.9183 0.8952 -0.3175 0
M  V30 17 Pb 7.6696 1.2235 0.5964 0
M  V30 18 Pb 8.1251 0.6113 -1.2470 0
M  V30 19 Pb 7.5147 -0.0188 -0.1397 0
M  V30 20 Pb 8.1920 1.8261 -0.5438 0
M  V30 21 Pd -7.5663 -1.2002 -3.3894 0
M  V30 22 Pb -7.3060 -1.1848 -4.3542 0
M  V30 23 Pb -7.6584 -1.3803 -2.4106 0
M  V30 24 Pb -7.2430 -0.2675 -3.2370 0
M  V30 25 Pb -7.8319 -2.1598 -3.5340 0
M  V30 26 Pd 4.5196 4.1051 0.1929 0
M  V30 27 Pb 5.4045 4.3432 -0.2078 0
M  V30 28 Pb 5.0094 3.8948 1.0374 0
M  V30 29 Pb 4.6120 4.8559 0.8474 0
M  V30 30 Pb 4.2151 3.7012 -0.6691 0
M  V30 31 Pd -1.5159 3.6220 4.0967 0
M  V30 32 Pb -1.2901 2.6926 3.8007 0
M  V30 33 Pb -1.4369 4.5851 4.3784 0
M  V30 34 Pb -1.1630 3.3782 4.9965 0
M  V30 35 Pb -1.8585 3.8708 3.1908 0
M  V30 36 Pd 2.8454 4.9874 5.2759 0
M  V30 37 Pb 2.3104 4.4658 5.9356 0
M  V30 38 Pb 2.1446 5.7065 5.3466 0
M  V30 39 Pb 3.3734 5.5086 4.6053 0
M  V30 40 Pb 3.3191 4.1356 5.0469 0
M  V30 41 Pd -1.1601 -4.3935 0.0261 0
M  V30 42 Pb -0.2148 -4.6871 0.1687 0
M  V30 43 Pb -1.2298 -5.0372 -0.7374 0
M  V30 44 Pb -2.1308 -4.5157 0.2003 0
M  V30 45 Pb -1.8249 -3.7431 -0.3923 0
M  V30 46 Ag 4.7457 -2.4857 -3.2493 0
M  V30 47 Fe 6.6353 -1.0939 -3.0486 0
M  V30 48 Ag 8.1322 0.3457 -1.9377 0
M  V30 49 Ag -0.8401 2.1114 3.6645 0
M  V30 50 Fe 1.4903 2.2028 4.0667 0
M  V30 51 Ag 3.3743 3.4308 4.8040 0
M  V30 52 Ag -4.8541 -5.5122 -5.0285 0
M  V30 53 Fe -5.8320 -3.4018 -5.4829 0
M  V30 54 Ag -7.0111 -1.4019 -5.0062 0
M  V30 55 Ag -5.4443 -5.8396 -1.7741 0
M  V30 56 Fe -6.5923 -3.8235 -1.2901 0
M  V30 57 Ag -7.6012 -1.7292 -1.7517 0
M  V30 58 Ag 3.5884 -1.2613 -2.5457 0
M  V30 59 Fe 3.7802 1.0444 -2.0011 0
M  V30 60 Ag 4.0272 3.2920 -1.2689 0
M  V30 61 Ag -5.0012 -0.3940 0.3436 0
M  V30 62 Fe -4.3490 -2.6554 0.4238 0
M  V30 63 Ag -2.8600 -4.4769 0.3223 0
M  V30 64 Ba 7.4626 1.5361 1.2487 0
M  V30 65 Ga 6.4584 2.5849 1.5155 0
M  V30 66 Ba 5.4198 3.6298 1.6052 0
M  V30 67 Ba -3.4479 2.6101 0.3132 0
M  V30 68 Ga -2.7816 3.3337 1.4124 0
M  V30 69 Ba -2.1154 4.0576 2.5113 0
M  V30 70 Ba -3.7205 -0.6324 -0.7237 0
M  V30 71 Ga -2.9797 -1.9317 -0.6527 0
M  V30 72 Ba -2.3322 -3.2791 -0.7373 0
M  V30 73 Ba -3.3242 -6.5329 -3.1565 0
M  V30 74 Ga -2.2941 -6.0363 -2.2249 0
M  V30 75 Ba -1.2631 -5.5401 -1.2942 0
M  V30 76 Ba 4.6806 5.4195 1.3379 0
M  V30 77 Ga 4.2251 5.6597 2.7201 0
M  V30 78 Ba 3.7694 5.8994 4.1023 0
M  V30 79 Ba -1.2302 5.2785 4.6085 0
M  V30 80 Ga 0.1217 5.7740 4.9940 0
M  V30 81 Ba 1.5214 6.1400 5.3523 0
M  V30 82 Ba 5.0344 -2.5611 -0.8830 0
M  V30 83 Ga 6.0949 -1.5797 -0.4998 0
M  V30 84 Ba 7.2014 -0.7037 -0.0062 0
M  V30 85 Ba -4.9759 1.5371 -1.2570 0
M  V30 86 Ga -5.9746 0.9785 -2.1875 0
M  V30 87 Ba -6.9732 0.4210 -3.1189 0
M  V30 88 Ba 3.1171 -4.1063 -0.8102 0
M  V30 89 Ga 1.8054 -4.5067 -0.2674 0
M  V30 90 Ba 0.4940 -4.9077 0.2759 0
M  V30 91 Ba -6.6410 -5.5113 -3.6553 0
M  V30 92 Ga -7.3142 -4.1896 -3.6444 0
M  V30 93 Ba -8.0195 -2.8845 -3.6409 0
M  V30 94 Ba -0.8445 3.2263 5.6541 0
M  V30 95 Ga 0.4987 3.6066 6.1087 0
M  V30 96 Ba 1.8626 4.0740 6.3859 0
M  V30 97 Ba 8.2825 2.5462 -0.7170 0
M  V30 98 Ga 7.2453 3.5859 -0.6276 0
M  V30 99 Ba 6.0917 4.4864 -0.4718 0
M  V30 END ATOM
M  V30 BEGIN BOND
M  V30 1 1 1 2
M  V30 2 1 1 3
M  V30 3 1 1 4
M  V30 4 1 1 5
M  V30 5 1 6 7
M  V30 6 1 6 8
M  V30 7 1 6 9
M  V30 8 1 6 10
M  V30 9 1 11 12
M  V30 10 1 11 13
M  V30 11 1 11 14
M  V30 12 1 11 15
M  V30 13 1 16 17
M  V30 14 1 16 18
M  V30 15 1 16 19
M  V30 16 1 16 20
M  V30 17 1 21 22
M  V30 18 1 21 23
M  V30 19 1 21 24
M  V30 20 1 21 25
M  V30 21 1 26 27
M  V30 22 1 26 28
M  V30 23 1 26 29
M  V30 24 1 26 30
M  V30 25 1 31 32
M  V30 26 1 31 33
M  V30 27 1 31 34
M  V30 28 1 31 35
M  V30 29 1 36 37
M  V30 30 1 36 38
M  V30 31 1 36 39
M  V30 32 1 36 40
M  V30 33 1 41 42
M  V30 34 1 41 43
M  V30 35 1 41 44
M  V30 36 1 41 45
M  V30 37 1 46 47
M  V30 38 1 47 48
M  V30 39 1 49 50
M  V30 40 1 50 51
M  V30 41 1 52 53
M  V30 42 1 53 54
M  V30 43 1 55 56
M  V30 44 1 56 57
M  V30 45 1 58 59
M  V30 46 1 59 60
M  V30 47 1 61 62
M  V30 48 1 62 63
M  V30 49 1 64 65
M  V30 50 1 65 66
M  V30 51 1 67 68
M  V30 52 1 68 69
M  V30 53 1 70 71
M  V30 54 1 71 72
M  V30 55 1 73 74
M  V30 56 1 74 75
M  V30 57 1 76 77
M  V30 58 1 77 78
M  V30 59 1 79 80
M  V30 60 1 80 81
M  V30 61 1 82 83
M  V30 62 1 83 84
M  V30 63 1 85 86
M  V30 64 1 86 87
M  V30 65 1 88 89
M  V30 66 1 89 90
M  V30 67 1 91 92
M  V30 68 1 92 93
M  V30 69 1 94 95
M  V30 70 1 95 96
M  V30 71 1 97 98
M  V30 72 1 98 99
M  V30 73 1 2 91
M  V30 74 1 3 55
M  V30 75 1 4 73
M  V30 76 1 5 52
M  V30 77 1 7 61
M  V30 78 1 8 67
M  V30 79 1 9 85
M  V30 80 1 10 70
M  V30 81 1 12 88
M  V30 82 1 13 82
M  V30 83 1 14 58
M  V30 84 1 15 46
M  V30 85 1 17 64
M  V30 86 1 18 48
M  V30 87 1 19 84
M  V30 88 1 20 97
M  V30 89 1 22 54
M  V30 90 1 23 57
M  V30 91 1 24 87
M  V30 92 1 25 93
M  V30 93 1 27 99
M  V30 94 1 28 66
M  V30 95 1 29 76
M  V30 96 1 30 60
M  V30 97 1 32 49
M  V30 98 1 33 79
M  V30 99 1 34 94
M  V30 100 1 35 69
M  V30 101 1 37 96
M  V30 102 1 38 81
M  V30 103 1 39 78
M  V30 104 1 40 51
M  V30 105 1 42 90
M  V30 106 1 43 75
M  V30 107 1 44 63
M  V30 108 1 45 72
M  V30 END BOND
M  V30 END CTAB
M  END

$$$$
