
     RDKit          3D

  0  0  0  0  0  0  0  0  0  0999 V3000
M  V30 BEGIN CTAB
M  V30 COUNTS 99 108 0 0 0
M  V30 BEGIN ATOM
M  V30 1 Pd 0.2908 1.7581 2.8256 0
M  V30 2 Pb -0.3150 0.9927 2.5917 0
M  V30 3 Pb 0.5567 1.1963 3.6240 0
M  V30 4 Pb 1.1809 2.2054 2.8460 0
M  V30 5 Pb 0.3910 2.5854 3.3770 0
M  V30 6 Pd -2.6179 -0.6342 -4.9448 0
M  V30 7 Pb -2.4911 0.1859 -5.4954 0
M  V30 8 Pb -1.7957 -0.9834 -5.4008 0
M  V30 9 Pb -2.8255 -1.5461 -4.5647 0
M  V30 10 Pb -3.3398 -0.1244 -4.4676 0
M  V30 11 Pd 0.3536 -4.7006 3.3952 0
M  V30 12 Pb 0.8535 -4.2122 4.1144 0
M  V30 13 Pb -0.5466 -4.4264 3.7507 0
M  V30 14 Pb 1.2474 -4.9714 3.0434 0
M  V30 15 Pb -0.0563 -5.1807 2.6171 0
M  V30 16 Pd 2.5578 3.3769 -7.6420 0
M  V30 17 Pb 2.4899 2.3762 -7.5818 0
M  V30 18 Pb 2.5151 4.3709 -7.5967 0
M  V30 19 Pb 3.3728 3.3991 -7.0470 0
M  V30 20 Pb 1.6455 3.3700 -8.0318 0
M  V30 21 Pd 6.3687 -1.2385 2.6845 0
M  V30 22 Pb 5.9647 -1.4715 3.5709 0
M  V30 23 Pb 6.3129 -0.2682 2.8949 0
M  V30 24 Pb 6.5231 -0.9835 1.7332 0
M  V30 25 Pb 6.2804 -2.1994 2.4405 0
M  V30 26 Pd -2.4568 -0.6573 6.3711 0
M  V30 27 Pb -1.4667 -0.7957 6.3888 0
M  V30 28 Pb -3.3561 -0.3263 6.0956 0
M  V30 29 Pb -2.5887 -1.5245 5.8804 0
M  V30 30 Pb -2.3159 0.2074 6.8516 0
M  V30 31 Pd -4.2746 2.3391 -0.1343 0
M  V30 32 Pb -4.2227 2.2726 -1.1361 0
M  V30 33 Pb -5.1409 1.8723 -0.2562 0
M  V30 34 Pb -3.3460 2.7105 -0.0026 0
M  V30 35 Pb -4.4372 2.2789 0.8551 0
M  V30 36 Pd 3.1811 3.7454 -2.1379 0
M  V30 37 Pb 2.5082 3.7102 -1.3909 0
M  V30 38 Pb 3.6767 2.9206 -1.8557 0
M  V30 39 Pb 3.7668 3.7445 -2.9652 0
M  V30 40 Pb 2.8009 4.6195 -2.4271 0
M  V30 41 Pd -3.4156 -4.1476 -0.6593 0
M  V30 42 Pb -3.4271 -4.3466 -1.6353 0
M  V30 43 Pb -3.3012 -3.7480 0.2479 0
M  V30 44 Pb -4.2469 -3.6184 -0.7824 0
M  V30 45 Pb -2.6452 -4.7569 -0.4806 0
M  V30 46 Ag -1.1348 -1.0946 -5.7462 0
M  V30 47 Fe 0.6812 0.1403 -6.6669 0
M  V30 48 Ag 2.3308 1.6423 -7.4998 0
M  V30 49 Ag 1.3414 -3.8662 4.5728 0
M  V30 50 Fe 3.4367 -2.7393 4.5468 0
M  V30 51 Ag 5.5210 -1.6639 4.1474 0
M  V30 52 Ag 2.4252 5.0621 -7.3460 0
M  V30 53 Fe 2.3951 5.7096 -5.0816 0
M  V30 54 Ag 2.6014 5.2410 -2.7815 0
M  V30 55 Ag 0.3246 3.0581 3.9454 0
M  V30 56 Fe -0.8601 2.5021 5.9028 0
M  V30 57 Ag -2.1238 0.8927 7.0704 0
M  V30 58 Ag -2.6391 2.9380 0.1536 0
M  V30 59 Fe -0.3478 3.3205 -0.3822 0
M  V30 60 Ag 1.9490 3.7190 -0.8814 0
M  V30 61 Ag -0.7747 0.3943 2.5703 0
M  V30 62 Fe -1.9558 -1.4748 1.6950 0
M  V30 63 Ag -3.1623 -3.3492 0.8665 0
M  V30 64 Ag -3.9159 0.0464 5.7657 0
M  V30 65 Fe -4.3755 1.1141 3.6905 0
M  V30 66 Ag -4.6615 2.1386 1.5627 0
M  V30 67 Ag 6.4865 -0.7492 1.0237 0
M  V30 68 Fe 5.3409 0.7980 -0.3703 0
M  V30 69 Ag 4.1568 2.3552 -1.7204 0
M  V30 70 Ag 1.8782 2.4623 2.9081 0
M  V30 71 Fe 4.1146 1.6917 2.9870 0
M  V30 72 Ag 6.1260 0.4451 2.9882 0
M  V30 73 Ag -2.3963 0.7323 -5.9950 0
M  V30 74 Fe -0.8740 2.1025 -7.1831 0
M  V30 75 Ag 0.9145 3.3180 -8.1461 0
M  V30 76 Ag 1.9372 -5.1244 2.7993 0
M  V30 77 Fe 4.0899 -4.1899 2.4699 0
M  V30 78 Ag 6.0688 -2.8985 2.2954 0
M  V30 79 Ag -5.6753 1.3780 -0.3808 0
M  V30 80 Fe -5.5945 -0.9638 -0.6593 0
M  V30 81 Ag -4.8580 -3.1999 -0.8344 0
M  V30 82 Ba -1.2391 -4.2514 3.9979 0
M  V30 83 Ga -1.9295 -3.1881 4.7653 0
M  V30 84 Ba -2.7071 -2.1772 5.5199 0
M  V30 85 Ba 0.7526 0.7478 4.2078 0
M  V30 86 Ga 0.0445 -0.0271 5.2604 0
M  V30 87 Ba -0.7208 -0.7780 6.2899 0
M  V30 88 Ba 3.9443 3.4488 -6.5477 0
M  V30 89 Ga 4.0517 3.5799 -5.0658 0
M  V30 90 Ba 4.2072 3.7127 -3.5885 0
M  V30 91 Ba -2.9776 -2.2788 -4.4289 0
M  V30 92 Ga -3.1944 -3.3036 -3.3811 0
M  V30 93 Ba -3.4214 -4.3750 -2.3827 0
M  V30 94 Ba -3.8034 0.4122 -4.2034 0
M  V30 95 Ga -4.0347 1.2417 -2.9942 0
M  V30 96 Ba -4.3747 2.1463 -1.8674 0
M  V30 97 Ba -0.2679 -5.5493 1.9960 0
M  V30 98 Ga -1.1967 -5.3789 0.8615 0
M  V30 99 Ba -2.1129 -5.2471 -0.2884 0
M  V30 END ATOM
M  V30 BEGIN BOND
M  V30 1 1 1 2
M  V30 2 1 1 3
M  V30 3 1 1 4
M  V30 4 1 1 5
M  V30 5 1 6 7
M  V30 6 1 6 8
M  V30 7 1 6 9
M  V30 8 1 6 10
M  V30 9 1 11 12
M  V30 10 1 11 13
M  V30 11 1 11 14
M  V30 12 1 11 15
M  V30 13 1 16 17
M  V30 14 1 16 18
M  V30 15 1 16 19
M  V30 16 1 16 20
M  V30 17 1 21 22
M  V30 18 1 21 23
M  V30 19 1 21 24
M  V30 20 1 21 25
M  V30 21 1 26 27
M  V30 22 1 26 28
M  V30 23 1 26 29
M  V30 24 1 26 30
M  V30 25 1 31 32
M  V30 26 1 31 33
M  V30 27 1 31 34
M  V30 28 1 31 35
M  V30 29 1 36 37
M  V30 30 1 36 38
M  V30 31 1 36 39
M  V30 32 1 36 40
M  V30 33 1 41 42
M  V30 34 1 41 43
M  V30 35 1 41 44
M  V30 36 1 41 45
M  V30 37 1 46 47
M  V30 38 1 47 48
M  V30 39 1 49 50
M  V30 40 1 50 51
M  V30 41 1 52 53
M  V30 42 1 53 54
M  V30 43 1 55 56
M  V30 44 1 56 57
M  V30 45 1 58 59
M  V30 46 1 59 60
M  V30 47 1 61 62
M  V30 48 1 62 63
M  V30 49 1 64 65
M  V30 50 1 65 66
M  V30 51 1 67 68
M  V30 52 1 68 69
M  V30 53 1 70 71
M  V30 54 1 71 72
M  V30 55 1 73 74
M  V30 56 1 74 75
M  V30 57 1 76 77
M  V30 58 1 77 78
M  V30 59 1 79 80
M  V30 60 1 80 81
M  V30 61 1 82 83
M  V30 62 1 83 84
M  V30 63 1 85 86
M  V30 64 1 86 87
M  V30 65 1 88 89
M  V30 66 1 89 90
M  V30 67 1 91 92
M  V30 68 1 92 93
M  V30 69 1 94 95
M  V30 70 1 95 96
M  V30 71 1 97 98
M  V30 72 1 98 99
M  V30 73 1 2 61
M  V30 74 1 3 85
M  V30 75 1 4 70
M  V30 76 1 5 55
M  V30 77 1 7 73
M  V30 78 1 8 46
M  V30 79 1 9 91
M  V30 80 1 10 94
M  V30 81 1 12 49
M  V30 82 1 13 82
M  V30 83 1 14 76
M  V30 84 1 15 97
M  V30 85 1 17 48
M  V30 86 1 18 52
M  V30 87 1 19 88
M  V30 88 1 20 75
M  V30 89 1 22 51
M  V30 90 1 23 72
M  V30 91 1 24 67
M  V30 92 1 25 78
M  V30 93 1 27 87
M  V30 94 1 28 64
M  V30 95 1 29 84
M  V30 96 1 30 57
M  V30 97 1 32 96
M  V30 98 1 33 79
M  V30 99 1 34 58
M  V30 100 1 35 66
M  V30 101 1 37 60
M  V30 102 1 38 69
M  V30 103 1 39 90
M  V30 104 1 40 54
M  V30 105 1 42 93
M  V30 106 1 43 63
M  V30 107 1 44 81
M  V30 108 1 45 99
M  V30 END BOND
M  V30 END CTAB
M  END

$$$$
