
     RDKit          3D

  0  0  0  0  0  0  0  0  0  0999 V3000
M  V30 BEGIN CTAB
M  V30 COUNTS 99 108 0 0 0
M  V30 BEGIN ATOM
M  V30 1 Pd -3.0627 -0.6686 4.8429 0
M  V30 2 Pb -2.2702 -1.1700 4.4856 0
M  V30 3 Pb -3.3360 -1.4604 5.3922 0
M  V30 4 Pb -3.8680 -0.1860 5.1859 0
M  V30 5 Pb -2.8333 0.1457 4.3117 0
M  V30 6 Pd -7.5850 -2.5576 4.8565 0
M  V30 7 Pb -7.6923 -3.4730 4.4775 0
M  V30 8 Pb -7.4200 -1.6347 5.1975 0
M  V30 9 Pb -6.9096 -2.8980 5.5089 0
M  V30 10 Pb -8.1419 -2.2037 4.1051 0
M  V30 11 Pd 2.1386 -1.8628 -4.6978 0
M  V30 12 Pb 2.7106 -2.4805 -4.1608 0
M  V30 13 Pb 1.5755 -1.1810 -5.1592 0
M  V30 14 Pb 2.9656 -1.3907 -4.9979 0
M  V30 15 Pb 1.3020 -2.3192 -4.3890 0
M  V30 16 Pd 7.7690 2.8140 -2.5547 0
M  V30 17 Pb 7.5237 3.6678 -3.0260 0
M  V30 18 Pb 7.9703 1.9693 -2.0493 0
M  V30 19 Pb 8.1147 3.3673 -1.8004 0
M  V30 20 Pb 7.3988 2.2742 -3.3087 0
M  V30 21 Pd -0.7876 -2.8518 0.0172 0
M  V30 22 Pb -0.2337 -2.0324 -0.1035 0
M  V30 23 Pb -1.3786 -3.6510 0.1079 0
M  V30 24 Pb -0.8516 -2.9649 -0.9764 0
M  V30 25 Pb -0.6877 -2.7651 1.0133 0
M  V30 26 Pd -6.1654 -3.4327 0.2966 0
M  V30 27 Pb -6.5462 -4.1309 0.9007 0
M  V30 28 Pb -5.7954 -2.7282 -0.3147 0
M  V30 29 Pb -6.9603 -2.8586 0.5033 0
M  V30 30 Pb -5.3671 -4.0206 0.1624 0
M  V30 31 Pd 4.6360 -0.7247 -0.2247 0
M  V30 32 Pb 3.6442 -0.6166 -0.2730 0
M  V30 33 Pb 4.6280 0.0591 0.3943 0
M  V30 34 Pb 4.6091 -1.5347 -0.8150 0
M  V30 35 Pb 5.6375 -0.7190 -0.2555 0
M  V30 36 Pd -2.0062 3.0644 -1.8649 0
M  V30 37 Pb -1.3862 3.8527 -1.8489 0
M  V30 38 Pb -1.8055 2.9160 -2.8303 0
M  V30 39 Pb -2.1368 3.1450 -0.8790 0
M  V30 40 Pb -2.6247 2.2745 -1.9074 0
M  V30 41 Pd 5.0055 6.2750 -0.6352 0
M  V30 42 Pb 5.9484 6.1331 -0.3397 0
M  V30 43 Pb 5.3516 6.4850 -1.5482 0
M  V30 44 Pb 4.7126 5.8533 0.2159 0
M  V30 45 Pb 4.0531 6.3791 -0.9297 0
M  V30 46 Ag 3.5908 -1.0320 -5.1996 0
M  V30 47 Fe 5.3648 0.4148 -4.5743 0
M  V30 48 Ag 7.1009 1.8672 -3.8617 0
M  V30 49 Ag -0.9263 4.4490 -1.8509 0
M  V30 50 Fe 1.2062 5.4384 -1.4921 0
M  V30 51 Ag 3.3328 6.4420 -1.1377 0
M  V30 52 Ag 4.5557 0.6553 0.8418 0
M  V30 53 Fe 4.5177 3.0206 0.9986 0
M  V30 54 Ag 4.5710 5.3791 0.7711 0
M  V30 55 Ag -2.7175 0.7826 3.9345 0
M  V30 56 Fe -2.4516 1.9834 1.9048 0
M  V30 57 Ag -2.1848 3.1704 -0.1331 0
M  V30 58 Ag -5.5448 -2.1995 -0.7895 0
M  V30 59 Fe -4.2869 -0.2512 -1.3209 0
M  V30 60 Ag -3.0827 1.6832 -2.0048 0
M  V30 61 Ag 1.1403 -0.6304 -5.4150 0
M  V30 62 Fe -0.2781 1.1084 -4.6503 0
M  V30 63 Ag -1.6068 2.7145 -3.5213 0
M  V30 64 Ba -8.4808 -1.9619 3.4808 0
M  V30 65 Ga -8.0743 -2.1718 2.0763 0
M  V30 66 Ba -7.5576 -2.4570 0.7221 0
M  V30 67 Ba -3.5959 -2.0256 5.8143 0
M  V30 68 Ga -4.9448 -2.6147 5.9219 0
M  V30 69 Ba -6.3323 -3.1170 5.9333 0
M  V30 70 Ba 8.3206 3.8294 -1.2508 0
M  V30 71 Ga 7.5470 4.9223 -0.6428 0
M  V30 72 Ba 6.6505 5.9731 -0.1379 0
M  V30 73 Ba -4.4950 0.1441 5.4293 0
M  V30 74 Ga -5.8832 -0.3451 5.4636 0
M  V30 75 Ba -7.2225 -0.9559 5.4399 0
M  V30 76 Ba -1.8438 -4.2370 0.1160 0
M  V30 77 Ga -3.3127 -4.3646 0.1204 0
M  V30 78 Ba -4.7818 -4.4893 0.1231 0
M  V30 79 Ba -7.7340 -4.1322 4.1303 0
M  V30 80 Ga -7.3099 -4.4559 2.7601 0
M  V30 81 Ba -6.8423 -4.6272 1.3765 0
M  V30 82 Ba 3.1646 -2.8875 -3.7262 0
M  V30 83 Ga 3.8806 -2.5426 -2.4822 0
M  V30 84 Ba 4.5785 -2.1547 -1.2406 0
M  V30 85 Ba 0.1506 -1.4006 -0.2039 0
M  V30 86 Ga 1.5590 -0.9736 -0.2516 0
M  V30 87 Ba 2.9222 -0.4219 -0.3219 0
M  V30 88 Ba 0.6537 -2.6386 -4.1818 0
M  V30 89 Ga -0.1043 -2.8503 -2.9313 0
M  V30 90 Ba -0.9088 -3.0912 -1.7155 0
M  V30 91 Ba -1.6766 -1.5652 4.2425 0
M  V30 92 Ga -1.1580 -2.1178 2.9710 0
M  V30 93 Ba -0.5573 -2.7096 1.7545 0
M  V30 94 Ba 7.3240 4.3261 -3.3389 0
M  V30 95 Ga 6.5045 5.4544 -2.8433 0
M  V30 96 Ba 5.6668 6.5077 -2.2282 0
M  V30 97 Ba 8.1049 1.3367 -1.6602 0
M  V30 98 Ga 7.2595 0.3267 -0.9846 0
M  V30 99 Ba 6.3852 -0.6654 -0.3193 0
M  V30 END ATOM
M  V30 BEGIN BOND
M  V30 1 1 1 2
M  V30 2 1 1 3
M  V30 3 1 1 4
M  V30 4 1 1 5
M  V30 5 1 6 7
M  V30 6 1 6 8
M  V30 7 1 6 9
M  V30 8 1 6 10
M  V30 9 1 11 12
M  V30 10 1 11 13
M  V30 11 1 11 14
M  V30 12 1 11 15
M  V30 13 1 16 17
M  V30 14 1 16 18
M  V30 15 1 16 19
M  V30 16 1 16 20
M  V30 17 1 21 22
M  V30 18 1 21 23
M  V30 19 1 21 24
M  V30 20 1 21 25
M  V30 21 1 26 27
M  V30 22 1 26 28
M  V30 23 1 26 29
M  V30 24 1 26 30
M  V30 25 1 31 32
M  V30 26 1 31 33
M  V30 27 1 31 34
M  V30 28 1 31 35
M  V30 29 1 36 37
M  V30 30 1 36 38
M  V30 31 1 36 39
M  V30 32 1 36 40
M  V30 33 1 41 42
M  V30 34 1 41 43
M  V30 35 1 41 44
M  V30 36 1 41 45
M  V30 37 1 46 47
M  V30 38 1 47 48
M  V30 39 1 49 50
M  V30 40 1 50 51
M  V30 41 1 52 53
M  V30 42 1 53 54
M  V30 43 1 55 56
M  V30 44 1 56 57
M  V30 45 1 58 59
M  V30 46 1 59 60
M  V30 47 1 61 62
M  V30 48 1 62 63
M  V30 49 1 64 65
M  V30 50 1 65 66
M  V30 51 1 67 68
M  V30 52 1 68 69
M  V30 53 1 70 71
M  V30 54 1 71 72
M  V30 55 1 73 74
M  V30 56 1 74 75
M  V30 57 1 76 77
M  V30 58 1 77 78
M  V30 59 1 79 80
M  V30 60 1 80 81
M  V30 61 1 82 83
M  V30 62 1 83 84
M  V30 63 1 85 86
M  V30 64 1 86 87
M  V30 65 1 88 89
M  V30 66 1 89 90
M  V30 67 1 91 92
M  V30 68 1 92 93
M  V30 69 1 94 95
M  V30 70 1 95 96
M  V30 71 1 97 98
M  V30 72 1 98 99
M  V30 73 1 2 91
M  V30 74 1 3 67
M  V30 75 1 4 73
M  V30 76 1 5 55
M  V30 77 1 7 79
M  V30 78 1 8 75
M  V30 79 1 9 69
M  V30 80 1 10 64
M  V30 81 1 12 82
M  V30 82 1 13 61
M  V30 83 1 14 46
M  V30 84 1 15 88
M  V30 85 1 17 94
M  V30 86 1 18 97
M  V30 87 1 19 70
M  V30 88 1 20 48
M  V30 89 1 22 85
M  V30 90 1 23 76
M  V30 91 1 24 90
M  V30 92 1 25 93
M  V30 93 1 27 81
M  V30 94 1 28 58
M  V30 95 1 29 66
M  V30 96 1 30 78
M  V30 97 1 32 87
M  V30 98 1 33 52
M  V30 99 1 34 84
M  V30 100 1 35 99
M  V30 101 1 37 49
M  V30 102 1 38 63
M  V30 103 1 39 57
M  V30 104 1 40 60
M  V30 105 1 42 72
M  V30 106 1 43 96
M  V30 107 1 44 54
M  V30 108 1 45 51
M  V30 END BOND
M  V30 END CTAB
M  END

$$$$
