
     RDKit          3D

  0  0  0  0  0  0  0  0  0  0999 V3000
M  V30 BEGIN CTAB
M  V30 COUNTS 99 108 0 0 0
M  V30 BEGIN ATOM
M  V30 1 Pd -3.0176 0.7995 -2.9871 0
M  V30 2 Pb -2.4140 0.6092 -3.7666 0
M  V30 3 Pb -2.7823 1.7661 -3.0856 0
M  V30 4 Pb -3.3235 -0.1490 -2.8855 0
M  V30 5 Pb -3.6045 1.0362 -2.2124 0
M  V30 6 Pd 2.7236 7.5621 4.4120 0
M  V30 7 Pb 3.1717 6.7837 4.8489 0
M  V30 8 Pb 3.3908 7.5650 3.6725 0
M  V30 9 Pb 1.9829 7.5272 5.0760 0
M  V30 10 Pb 2.1719 8.2373 3.9015 0
M  V30 11 Pd 4.4965 -4.0351 -1.4946 0
M  V30 12 Pb 4.2519 -3.3821 -2.2428 0
M  V30 13 Pb 4.6108 -3.2946 -0.8340 0
M  V30 14 Pb 4.6581 -4.6850 -0.7520 0
M  V30 15 Pb 4.4408 -4.7911 -2.1337 0
M  V30 16 Pd 1.0390 -7.0822 1.0274 0
M  V30 17 Pb 2.0211 -6.9403 1.1627 0
M  V30 18 Pb 1.2219 -7.8551 0.4262 0
M  V30 19 Pb 0.8186 -6.3010 1.6138 0
M  V30 20 Pb 0.0484 -7.2242 0.8631 0
M  V30 21 Pd 1.8837 0.0186 4.5369 0
M  V30 22 Pb 2.3620 0.8422 4.8492 0
M  V30 23 Pb 2.6721 -0.2167 3.9718 0
M  V30 24 Pb 1.4232 -0.8277 4.2646 0
M  V30 25 Pb 1.0467 0.2935 5.0096 0
M  V30 26 Pd -3.2327 -7.0885 -2.9489 0
M  V30 27 Pb -2.7069 -7.9054 -3.1680 0
M  V30 28 Pb -3.3271 -6.8457 -3.9117 0
M  V30 29 Pb -3.6870 -6.2263 -2.7296 0
M  V30 30 Pb -3.0474 -7.2601 -1.9690 0
M  V30 31 Pd 0.8098 -2.5803 -5.9868 0
M  V30 32 Pb 0.3734 -1.6852 -5.8776 0
M  V30 33 Pb -0.0084 -2.9353 -6.4326 0
M  V30 34 Pb 1.2184 -3.4712 -6.1363 0
M  V30 35 Pb 1.6277 -2.3048 -5.4413 0
M  V30 36 Pd -3.8116 4.7629 3.5840 0
M  V30 37 Pb -3.5518 3.9808 4.1509 0
M  V30 38 Pb -3.9990 5.5586 3.0028 0
M  V30 39 Pb -3.3665 5.3434 4.2615 0
M  V30 40 Pb -4.2326 4.1572 2.9082 0
M  V30 41 Pd -0.8888 7.7090 -0.0310 0
M  V30 42 Pb 0.0352 7.6834 -0.4037 0
M  V30 43 Pb -1.2075 7.1473 -0.7938 0
M  V30 44 Pb -1.8147 7.7234 0.3584 0
M  V30 45 Pb -0.5257 8.2680 0.7319 0
M  V30 46 Ag 3.4365 6.1432 5.1332 0
M  V30 47 Fe 3.1298 3.7871 5.1464 0
M  V30 48 Ag 2.7429 1.4432 5.0938 0
M  V30 49 Ag 0.3829 0.5034 5.2888 0
M  V30 50 Fe -1.4933 1.9324 5.0069 0
M  V30 51 Ag -3.2900 3.4277 4.5851 0
M  V30 52 Ag 0.6014 -5.7227 2.0416 0
M  V30 53 Fe 0.8924 -3.5875 3.0435 0
M  V30 54 Ag 1.0626 -1.4658 4.1003 0
M  V30 55 Ag 1.2103 -8.3902 -0.0889 0
M  V30 56 Fe -0.3066 -8.8239 -1.8437 0
M  V30 57 Ag -2.2021 -8.4486 -3.1978 0
M  V30 58 Ag 4.3358 -5.2761 -2.6797 0
M  V30 59 Fe 3.0415 -5.1571 -4.6384 0
M  V30 60 Ag 1.5613 -4.1247 -6.1451 0
M  V30 61 Ag 3.7095 7.5677 3.0029 0
M  V30 62 Fe 2.6330 7.6123 0.9048 0
M  V30 63 Ag 0.7664 7.6666 -0.5374 0
M  V30 64 Ag 1.3528 7.4877 5.4714 0
M  V30 65 Fe -0.8613 6.6664 5.2755 0
M  V30 66 Ag -2.9793 5.7322 4.7683 0
M  V30 67 Ag -3.6355 -0.8208 -2.7539 0
M  V30 68 Fe -3.7718 -3.1921 -2.6924 0
M  V30 69 Ag -3.9935 -5.5558 -2.5961 0
M  V30 70 Ag -4.0377 1.2315 -1.6318 0
M  V30 71 Fe -4.3050 2.4555 0.3862 0
M  V30 72 Ag -4.5331 3.6938 2.4004 0
M  V30 73 Ag -2.6402 2.4977 -3.1673 0
M  V30 74 Fe -2.0269 4.6051 -2.2611 0
M  V30 75 Ag -1.4154 6.7211 -1.3742 0
M  V30 76 Ag -3.3271 -6.5531 -4.5987 0
M  V30 77 Fe -2.1097 -4.9478 -5.8470 0
M  V30 78 Ag -0.6120 -3.3054 -6.6695 0
M  V30 79 Ag 4.7331 -2.7818 -0.3018 0
M  V30 80 Fe 3.9974 -1.5657 1.5990 0
M  V30 81 Ag 3.2312 -0.3639 3.4969 0
M  V30 82 Ba -1.9492 0.5812 -4.3598 0
M  V30 83 Ga -0.9675 -0.2786 -5.0550 0
M  V30 84 Ba 0.0336 -1.0149 -5.8567 0
M  V30 85 Ba 1.7139 8.7179 3.5299 0
M  V30 86 Ga 0.7517 8.6724 2.3925 0
M  V30 87 Ba -0.2284 8.7191 1.2706 0
M  V30 88 Ba 4.0866 -2.8663 -2.7934 0
M  V30 89 Ga 3.1235 -2.5531 -3.9013 0
M  V30 90 Ba 2.2508 -2.1006 -5.0358 0
M  V30 91 Ba -0.6998 -7.3475 0.7721 0
M  V30 92 Ga -1.7622 -7.3470 -0.2741 0
M  V30 93 Ba -2.9064 -7.3799 -1.2298 0
M  V30 94 Ba 4.7346 -5.1690 -0.1841 0
M  V30 95 Ga 3.7646 -6.0115 0.5428 0
M  V30 96 Ba 2.7613 -6.8378 1.2428 0
M  V30 97 Ba -4.1182 6.1599 2.5654 0
M  V30 98 Ga -3.3057 6.9399 1.6048 0
M  V30 99 Ba -2.5145 7.7362 0.6400 0
M  V30 END ATOM
M  V30 BEGIN BOND
M  V30 1 1 1 2
M  V30 2 1 1 3
M  V30 3 1 1 4
M  V30 4 1 1 5
M  V30 5 1 6 7
M  V30 6 1 6 8
M  V30 7 1 6 9
M  V30 8 1 6 10
M  V30 9 1 11 12
M  V30 10 1 11 13
M  V30 11 1 11 14
M  V30 12 1 11 15
M  V30 13 1 16 17
M  V30 14 1 16 18
M  V30 15 1 16 19
M  V30 16 1 16 20
M  V30 17 1 21 22
M  V30 18 1 21 23
M  V30 19 1 21 24
M  V30 20 1 21 25
M  V30 21 1 26 27
M  V30 22 1 26 28
M  V30 23 1 26 29
M  V30 24 1 26 30
M  V30 25 1 31 32
M  V30 26 1 31 33
M  V30 27 1 31 34
M  V30 28 1 31 35
M  V30 29 1 36 37
M  V30 30 1 36 38
M  V30 31 1 36 39
M  V30 32 1 36 40
M  V30 33 1 41 42
M  V30 34 1 41 43
M  V30 35 1 41 44
M  V30 36 1 41 45
M  V30 37 1 46 47
M  V30 38 1 47 48
M  V30 39 1 49 50
M  V30 40 1 50 51
M  V30 41 1 52 53
M  V30 42 1 53 54
M  V30 43 1 55 56
M  V30 44 1 56 57
M  V30 45 1 58 59
M  V30 46 1 59 60
M  V30 47 1 61 62
M  V30 48 1 62 63
M  V30 49 1 64 65
M  V30 50 1 65 66
M  V30 51 1 67 68
M  V30 52 1 68 69
M  V30 53 1 70 71
M  V30 54 1 71 72
M  V30 55 1 73 74
M  V30 56 1 74 75
M  V30 57 1 76 77
M  V30 58 1 77 78
M  V30 59 1 79 80
M  V30 60 1 80 81
M  V30 61 1 82 83
M  V30 62 1 83 84
M  V30 63 1 85 86
M  V30 64 1 86 87
M  V30 65 1 88 89
M  V30 66 1 89 90
M  V30 67 1 91 92
M  V30 68 1 92 93
M  V30 69 1 94 95
M  V30 70 1 95 96
M  V30 71 1 97 98
M  V30 72 1 98 99
M  V30 73 1 2 82
M  V30 74 1 3 73
M  V30 75 1 4 67
M  V30 76 1 5 70
M  V30 77 1 7 46
M  V30 78 1 8 61
M  V30 79 1 9 64
M  V30 80 1 10 85
M  V30 81 1 12 88
M  V30 82 1 13 79
M  V30 83 1 14 94
M  V30 84 1 15 58
M  V30 85 1 17 96
M  V30 86 1 18 55
M  V30 87 1 19 52
M  V30 88 1 20 91
M  V30 89 1 22 48
M  V30 90 1 23 81
M  V30 91 1 24 54
M  V30 92 1 25 49
M  V30 93 1 27 57
M  V30 94 1 28 76
M  V30 95 1 29 69
M  V30 96 1 30 93
M  V30 97 1 32 84
M  V30 98 1 33 78
M  V30 99 1 34 60
M  V30 100 1 35 90
M  V30 101 1 37 51
M  V30 102 1 38 97
M  V30 103 1 39 66
M  V30 104 1 40 72
M  V30 105 1 42 63
M  V30 106 1 43 75
M  V30 107 1 44 99
M  V30 108 1 45 87
M  V30 END BOND
M  V30 END CTAB
M  END

$$$$
