
     RDKit          3D

  0  0  0  0  0  0  0  0  0  0999 V3000
M  V30 BEGIN CTAB
M  V30 COUNTS 99 108 0 0 0
M  V30 BEGIN ATOM
M  V30 1 Pd 3.4177 -2.5774 1.7157 0
M  V30 2 Pb 4.1967 -2.7167 1.1009 0
M  V30 3 Pb 2.8896 -3.2679 1.2208 0
M  V30 4 Pb 3.9461 -1.8983 2.2203 0
M  V30 5 Pb 2.6504 -2.4121 2.3352 0
M  V30 6 Pd -8.3847 -4.2066 -1.6909 0
M  V30 7 Pb -8.5728 -3.2393 -1.8437 0
M  V30 8 Pb -8.0117 -5.1079 -1.4348 0
M  V30 9 Pb -8.6557 -4.0858 -0.7421 0
M  V30 10 Pb -8.0066 -4.3252 -2.6051 0
M  V30 11 Pd 1.7142 2.9824 -3.8177 0
M  V30 12 Pb 2.6707 3.2692 -3.7416 0
M  V30 13 Pb 0.7586 2.7004 -3.8650 0
M  V30 14 Pb 1.3846 3.9223 -3.7285 0
M  V30 15 Pb 2.0159 2.0310 -3.8709 0
M  V30 16 Pd 1.9086 6.3737 0.1414 0
M  V30 17 Pb 1.3665 6.4380 -0.6940 0
M  V30 18 Pb 2.5279 6.2696 0.9362 0
M  V30 19 Pb 1.2692 5.7165 0.5486 0
M  V30 20 Pb 2.5726 6.9934 -0.2662 0
M  V30 21 Pd -4.4362 1.6562 0.4458 0
M  V30 22 Pb -5.3023 1.3322 0.0584 0
M  V30 23 Pb -4.0883 1.7591 -0.4839 0
M  V30 24 Pb -3.5787 2.0242 0.8120 0
M  V30 25 Pb -4.7457 1.4964 1.3853 0
M  V30 26 Pd 7.0223 4.1758 1.6021 0
M  V30 27 Pb 6.2541 4.7114 1.9878 0
M  V30 28 Pb 7.7036 3.6025 1.1497 0
M  V30 29 Pb 6.7686 3.3956 2.1686 0
M  V30 30 Pb 7.2571 4.9547 1.0283 0
M  V30 31 Pd 6.0505 0.4746 -1.9675 0
M  V30 32 Pb 6.1692 -0.4438 -1.5846 0
M  V30 33 Pb 6.8882 0.7891 -1.5141 0
M  V30 34 Pb 5.2307 0.1615 -2.4467 0
M  V30 35 Pb 5.9093 1.3894 -2.3507 0
M  V30 36 Pd -4.1502 -2.5955 3.8447 0
M  V30 37 Pb -4.4189 -1.6313 3.9133 0
M  V30 38 Pb -3.9028 -3.5641 3.7473 0
M  V30 39 Pb -5.1102 -2.8218 3.7046 0
M  V30 40 Pb -3.1899 -2.3675 4.0013 0
M  V30 41 Pd -3.2754 -6.2812 -0.2449 0
M  V30 42 Pb -4.2673 -6.4896 -0.2790 0
M  V30 43 Pb -2.2897 -6.1077 -0.2505 0
M  V30 44 Pb -3.2802 -6.2705 0.7591 0
M  V30 45 Pb -3.2872 -6.2549 -1.2416 0
M  V30 46 Ag -8.6018 -2.4920 -1.8488 0
M  V30 47 Fe -7.3377 -0.6243 -1.1022 0
M  V30 48 Ag -5.9369 1.1095 -0.2796 0
M  V30 49 Ag 0.8244 5.2047 0.8766 0
M  V30 50 Fe -1.0736 3.7736 0.9478 0
M  V30 51 Ag -2.9465 2.3156 1.0976 0
M  V30 52 Ag -7.5566 -4.4876 -3.1723 0
M  V30 53 Fe -5.3703 -5.3681 -3.0638 0
M  V30 54 Ag -3.4434 -6.1733 -1.9642 0
M  V30 55 Ag 3.1767 7.3452 -0.5137 0
M  V30 56 Fe 5.4592 6.8351 -0.2231 0
M  V30 57 Ag 7.2622 5.5619 0.6029 0
M  V30 58 Ag -8.7381 -3.9905 -0.0094 0
M  V30 59 Fe -7.4191 -3.4898 1.8921 0
M  V30 60 Ag -5.8275 -2.9743 3.5682 0
M  V30 61 Ag 4.3379 -1.3862 2.5987 0
M  V30 62 Fe 5.4633 0.7014 2.6227 0
M  V30 63 Ag 6.5706 2.7981 2.5709 0
M  V30 64 Ag 2.0947 -2.2578 2.8147 0
M  V30 65 Fe -0.1940 -2.2470 3.4475 0
M  V30 66 Ag -2.4683 -2.2112 4.1296 0
M  V30 67 Ag 2.5025 -3.7940 0.8516 0
M  V30 68 Fe 0.4572 -4.8728 0.3069 0
M  V30 69 Ag -1.5471 -6.0019 -0.2858 0
M  V30 70 Ag 0.0312 2.5286 -3.8656 0
M  V30 71 Fe -1.9180 2.1549 -2.5661 0
M  V30 72 Ag -3.8070 1.7995 -1.1758 0
M  V30 73 Ba 4.7926 -2.8093 0.6515 0
M  V30 74 Ga 5.5141 -1.9697 -0.3276 0
M  V30 75 Ba 6.2437 -1.1397 -1.3090 0
M  V30 76 Ba -4.9296 1.3700 2.1036 0
M  V30 77 Ga -4.7950 0.2217 3.0259 0
M  V30 78 Ba -4.6644 -0.9203 3.9566 0
M  V30 79 Ba 3.0019 6.2065 1.5307 0
M  V30 80 Ga 4.3404 5.6356 1.8581 0
M  V30 81 Ba 5.6666 5.0998 2.2809 0
M  V30 82 Ba 2.2458 1.3179 -3.8872 0
M  V30 83 Ga 3.4299 0.6157 -3.3592 0
M  V30 84 Ba 4.6225 -0.0652 -2.8222 0
M  V30 85 Ba -7.6917 -5.7510 -1.1878 0
M  V30 86 Ga -6.3275 -6.1880 -0.7758 0
M  V30 87 Ba -4.9977 -6.7044 -0.3440 0
M  V30 88 Ba 3.3933 3.4636 -3.6729 0
M  V30 89 Ga 4.5961 2.7761 -3.1597 0
M  V30 90 Ba 5.7872 2.0716 -2.6423 0
M  V30 91 Ba 1.0821 4.6026 -3.6354 0
M  V30 92 Ga 1.0372 5.5571 -2.5130 0
M  V30 93 Ba 1.0275 6.4751 -1.3599 0
M  V30 94 Ba -3.7245 -4.2941 3.6806 0
M  V30 95 Ga -3.5046 -5.2606 2.5807 0
M  V30 96 Ba -3.2760 -6.2610 1.5132 0
M  V30 97 Ba 8.1589 3.1308 0.7872 0
M  V30 98 Ga 7.8652 2.0758 -0.2034 0
M  V30 99 Ba 7.5233 1.0320 -1.1904 0
M  V30 END ATOM
M  V30 BEGIN BOND
M  V30 1 1 1 2
M  V30 2 1 1 3
M  V30 3 1 1 4
M  V30 4 1 1 5
M  V30 5 1 6 7
M  V30 6 1 6 8
M  V30 7 1 6 9
M  V30 8 1 6 10
M  V30 9 1 11 12
M  V30 10 1 11 13
M  V30 11 1 11 14
M  V30 12 1 11 15
M  V30 13 1 16 17
M  V30 14 1 16 18
M  V30 15 1 16 19
M  V30 16 1 16 20
M  V30 17 1 21 22
M  V30 18 1 21 23
M  V30 19 1 21 24
M  V30 20 1 21 25
M  V30 21 1 26 27
M  V30 22 1 26 28
M  V30 23 1 26 29
M  V30 24 1 26 30
M  V30 25 1 31 32
M  V30 26 1 31 33
M  V30 27 1 31 34
M  V30 28 1 31 35
M  V30 29 1 36 37
M  V30 30 1 36 38
M  V30 31 1 36 39
M  V30 32 1 36 40
M  V30 33 1 41 42
M  V30 34 1 41 43
M  V30 35 1 41 44
M  V30 36 1 41 45
M  V30 37 1 46 47
M  V30 38 1 47 48
M  V30 39 1 49 50
M  V30 40 1 50 51
M  V30 41 1 52 53
M  V30 42 1 53 54
M  V30 43 1 55 56
M  V30 44 1 56 57
M  V30 45 1 58 59
M  V30 46 1 59 60
M  V30 47 1 61 62
M  V30 48 1 62 63
M  V30 49 1 64 65
M  V30 50 1 65 66
M  V30 51 1 67 68
M  V30 52 1 68 69
M  V30 53 1 70 71
M  V30 54 1 71 72
M  V30 55 1 73 74
M  V30 56 1 74 75
M  V30 57 1 76 77
M  V30 58 1 77 78
M  V30 59 1 79 80
M  V30 60 1 80 81
M  V30 61 1 82 83
M  V30 62 1 83 84
M  V30 63 1 85 86
M  V30 64 1 86 87
M  V30 65 1 88 89
M  V30 66 1 89 90
M  V30 67 1 91 92
M  V30 68 1 92 93
M  V30 69 1 94 95
M  V30 70 1 95 96
M  V30 71 1 97 98
M  V30 72 1 98 99
M  V30 73 1 2 73
M  V30 74 1 3 67
M  V30 75 1 4 61
M  V30 76 1 5 64
M  V30 77 1 7 46
M  V30 78 1 8 85
M  V30 79 1 9 58
M  V30 80 1 10 52
M  V30 81 1 12 88
M  V30 82 1 13 70
M  V30 83 1 14 91
M  V30 84 1 15 82
M  V30 85 1 17 93
M  V30 86 1 18 79
M  V30 87 1 19 49
M  V30 88 1 20 55
M  V30 89 1 22 48
M  V30 90 1 23 72
M  V30 91 1 24 51
M  V30 92 1 25 76
M  V30 93 1 27 81
M  V30 94 1 28 97
M  V30 95 1 29 63
M  V30 96 1 30 57
M  V30 97 1 32 75
M  V30 98 1 33 99
M  V30 99 1 34 84
M  V30 100 1 35 90
M  V30 101 1 37 78
M  V30 102 1 38 94
M  V30 103 1 39 60
M  V30 104 1 40 66
M  V30 105 1 42 87
M  V30 106 1 43 69
M  V30 107 1 44 96
M  V30 108 1 45 54
M  V30 END BOND
M  V30 END CTAB
M  END

$$$$
