
     RDKit          3D

  0  0  0  0  0  0  0  0  0  0999 V3000
M  V30 BEGIN CTAB
M  V30 COUNTS 99 108 0 0 0
M  V30 BEGIN ATOM
M  V30 1 Pd 1.4305 3.9185 -1.6810 0
M  V30 2 Pb 1.0654 4.6599 -1.1169 0
M  V30 3 Pb 0.5102 3.7841 -2.0575 0
M  V30 4 Pb 2.3423 4.0483 -1.2858 0
M  V30 5 Pb 1.8229 3.2387 -2.3014 0
M  V30 6 Pd -3.3689 -3.9908 -4.3677 0
M  V30 7 Pb -2.9138 -3.7123 -3.5192 0
M  V30 8 Pb -4.1006 -3.3176 -4.1586 0
M  V30 9 Pb -2.5912 -4.5262 -4.7020 0
M  V30 10 Pb -3.8540 -4.2466 -5.1995 0
M  V30 11 Pd -2.8446 -0.1119 5.7490 0
M  V30 12 Pb -3.5590 0.2427 5.1568 0
M  V30 13 Pb -3.0768 -1.0441 5.4759 0
M  V30 14 Pb -2.1190 -0.4793 6.3290 0
M  V30 15 Pb -2.5259 0.8384 5.9239 0
M  V30 16 Pd 4.3154 -1.5785 5.4384 0
M  V30 17 Pb 3.6325 -1.7621 6.1410 0
M  V30 18 Pb 4.4572 -0.6798 5.8426 0
M  V30 19 Pb 4.1336 -2.4799 5.0439 0
M  V30 20 Pb 4.9081 -1.3116 4.6745 0
M  V30 21 Pd -0.2366 -4.9085 0.7156 0
M  V30 22 Pb -0.8194 -4.3980 0.0792 0
M  V30 23 Pb -0.9335 -4.8259 1.4288 0
M  V30 24 Pb 0.4197 -5.2681 1.3760 0
M  V30 25 Pb 0.4705 -4.9693 0.0168 0
M  V30 26 Pd 4.4643 3.0914 3.1279 0
M  V30 27 Pb 4.4934 2.8241 4.0877 0
M  V30 28 Pb 3.9650 3.9132 3.4050 0
M  V30 29 Pb 4.4942 3.4021 2.1738 0
M  V30 30 Pb 4.9563 2.2453 2.8982 0
M  V30 31 Pd -0.7938 4.9436 3.3336 0
M  V30 32 Pb -0.5836 5.4568 2.5034 0
M  V30 33 Pb 0.1150 5.1874 3.6754 0
M  V30 34 Pb -1.0170 4.4091 4.1721 0
M  V30 35 Pb -1.6987 4.7380 2.9792 0
M  V30 36 Pd 1.4631 -2.4821 -6.0836 0
M  V30 37 Pb 1.9098 -3.0252 -5.3798 0
M  V30 38 Pb 0.9961 -1.9002 -6.7514 0
M  V30 39 Pb 0.8933 -3.2903 -6.2518 0
M  V30 40 Pb 1.9929 -1.6817 -5.8102 0
M  V30 41 Pd -4.5007 0.9947 -6.1692 0
M  V30 42 Pb -4.9968 0.4575 -5.4712 0
M  V30 43 Pb -4.0692 1.5584 -5.4611 0
M  V30 44 Pb -3.8246 1.2817 -6.8408 0
M  V30 45 Pb -4.9356 0.4462 -6.8781 0
M  V30 46 Ag 0.9998 -4.9882 -0.5083 0
M  V30 47 Fe 1.6851 -4.2658 -2.6579 0
M  V30 48 Ag 2.1792 -3.4379 -4.8217 0
M  V30 49 Ag 3.9413 -3.1530 4.7731 0
M  V30 50 Fe 2.4997 -4.3913 3.3495 0
M  V30 51 Ag 0.9653 -5.4269 1.8628 0
M  V30 52 Ag -4.2345 -4.2623 -5.8350 0
M  V30 53 Fe -5.0110 -2.4174 -7.0704 0
M  V30 54 Ag -5.1996 -0.0860 -7.3215 0
M  V30 55 Ag -3.9891 0.6115 4.6815 0
M  V30 56 Fe -3.6024 2.6016 3.4840 0
M  V30 57 Ag -2.3713 4.4880 2.7978 0
M  V30 58 Ag -1.5607 -0.7748 6.7312 0
M  V30 59 Fe 0.7394 -1.3527 6.7903 0
M  V30 60 Ag 3.0558 -1.8315 6.6104 0
M  V30 61 Ag 2.1620 2.7727 -2.7826 0
M  V30 62 Fe 2.2563 0.8493 -4.1719 0
M  V30 63 Ag 2.3519 -1.0747 -5.5602 0
M  V30 64 Ag 0.6594 -1.3880 -7.1862 0
M  V30 65 Fe -1.2167 0.0481 -7.4189 0
M  V30 66 Ag -3.2356 1.2898 -7.2982 0
M  V30 67 Ag -0.2007 3.7165 -2.2973 0
M  V30 68 Fe -1.9360 2.8124 -3.6490 0
M  V30 69 Ag -3.7666 1.9978 -4.9301 0
M  V30 70 Ag -3.1815 -1.7363 5.2101 0
M  V30 71 Fe -2.3813 -3.3046 3.6168 0
M  V30 72 Ag -1.4476 -4.7363 1.9683 0
M  V30 73 Ba -2.6521 -3.4275 -2.8739 0
M  V30 74 Ga -1.9111 -3.7734 -1.6428 0
M  V30 75 Ba -1.2017 -3.9155 -0.3540 0
M  V30 76 Ba 0.7902 5.2468 -0.7383 0
M  V30 77 Ga 0.1895 5.5227 0.5795 0
M  V30 78 Ba -0.4153 5.8437 1.8853 0
M  V30 79 Ba 4.5346 0.0043 6.1285 0
M  V30 80 Ga 4.5431 1.3310 5.4977 0
M  V30 81 Ba 4.5434 2.6273 4.8064 0
M  V30 82 Ba -2.2640 1.5454 6.0664 0
M  V30 83 Ga -1.7388 2.7629 5.3717 0
M  V30 84 Ba -1.1973 4.0470 4.8257 0
M  V30 85 Ba -4.6333 -2.7832 -4.0223 0
M  V30 86 Ga -4.9605 -1.4041 -4.4998 0
M  V30 87 Ba -5.3033 -0.0247 -4.9653 0
M  V30 88 Ba 5.3075 -1.0518 4.0905 0
M  V30 89 Ga 5.3331 0.2660 3.4133 0
M  V30 90 Ba 5.3257 1.5994 2.7666 0
M  V30 91 Ba -2.0329 -4.8750 -5.0672 0
M  V30 92 Ga -0.7614 -4.4141 -5.6696 0
M  V30 93 Ba 0.5065 -3.9374 -6.2672 0
M  V30 94 Ba 3.0371 4.1380 -1.0122 0
M  V30 95 Ga 3.7618 3.8823 0.2513 0
M  V30 96 Ba 4.5691 3.6632 1.4707 0
M  V30 97 Ba 3.5964 4.5109 3.6708 0
M  V30 98 Ga 2.1891 4.9462 3.7695 0
M  V30 99 Ba 0.7960 5.4200 3.8908 0
M  V30 END ATOM
M  V30 BEGIN BOND
M  V30 1 1 1 2
M  V30 2 1 1 3
M  V30 3 1 1 4
M  V30 4 1 1 5
M  V30 5 1 6 7
M  V30 6 1 6 8
M  V30 7 1 6 9
M  V30 8 1 6 10
M  V30 9 1 11 12
M  V30 10 1 11 13
M  V30 11 1 11 14
M  V30 12 1 11 15
M  V30 13 1 16 17
M  V30 14 1 16 18
M  V30 15 1 16 19
M  V30 16 1 16 20
M  V30 17 1 21 22
M  V30 18 1 21 23
M  V30 19 1 21 24
M  V30 20 1 21 25
M  V30 21 1 26 27
M  V30 22 1 26 28
M  V30 23 1 26 29
M  V30 24 1 26 30
M  V30 25 1 31 32
M  V30 26 1 31 33
M  V30 27 1 31 34
M  V30 28 1 31 35
M  V30 29 1 36 37
M  V30 30 1 36 38
M  V30 31 1 36 39
M  V30 32 1 36 40
M  V30 33 1 41 42
M  V30 34 1 41 43
M  V30 35 1 41 44
M  V30 36 1 41 45
M  V30 37 1 46 47
M  V30 38 1 47 48
M  V30 39 1 49 50
M  V30 40 1 50 51
M  V30 41 1 52 53
M  V30 42 1 53 54
M  V30 43 1 55 56
M  V30 44 1 56 57
M  V30 45 1 58 59
M  V30 46 1 59 60
M  V30 47 1 61 62
M  V30 48 1 62 63
M  V30 49 1 64 65
M  V30 50 1 65 66
M  V30 51 1 67 68
M  V30 52 1 68 69
M  V30 53 1 70 71
M  V30 54 1 71 72
M  V30 55 1 73 74
M  V30 56 1 74 75
M  V30 57 1 76 77
M  V30 58 1 77 78
M  V30 59 1 79 80
M  V30 60 1 80 81
M  V30 61 1 82 83
M  V30 62 1 83 84
M  V30 63 1 85 86
M  V30 64 1 86 87
M  V30 65 1 88 89
M  V30 66 1 89 90
M  V30 67 1 91 92
M  V30 68 1 92 93
M  V30 69 1 94 95
M  V30 70 1 95 96
M  V30 71 1 97 98
M  V30 72 1 98 99
M  V30 73 1 2 76
M  V30 74 1 3 67
M  V30 75 1 4 94
M  V30 76 1 5 61
M  V30 77 1 7 73
M  V30 78 1 8 85
M  V30 79 1 9 91
M  V30 80 1 10 52
M  V30 81 1 12 55
M  V30 82 1 13 70
M  V30 83 1 14 58
M  V30 84 1 15 82
M  V30 85 1 17 60
M  V30 86 1 18 79
M  V30 87 1 19 49
M  V30 88 1 20 88
M  V30 89 1 22 75
M  V30 90 1 23 72
M  V30 91 1 24 51
M  V30 92 1 25 46
M  V30 93 1 27 81
M  V30 94 1 28 97
M  V30 95 1 29 96
M  V30 96 1 30 90
M  V30 97 1 32 78
M  V30 98 1 33 99
M  V30 99 1 34 84
M  V30 100 1 35 57
M  V30 101 1 37 48
M  V30 102 1 38 64
M  V30 103 1 39 93
M  V30 104 1 40 63
M  V30 105 1 42 87
M  V30 106 1 43 69
M  V30 107 1 44 66
M  V30 108 1 45 54
M  V30 END BOND
M  V30 END CTAB
M  END

$$$$
