
     RDKit          3D

  0  0  0  0  0  0  0  0  0  0999 V3000
M  V30 BEGIN CTAB
M  V30 COUNTS 99 108 0 0 0
M  V30 BEGIN ATOM
M  V30 1 Pd -1.9974 6.1454 -1.7979 0
M  V30 2 Pb -1.3715 6.5491 -1.1327 0
M  V30 3 Pb -1.7151 6.7985 -2.5161 0
M  V30 4 Pb -2.6066 5.7156 -2.4593 0
M  V30 5 Pb -2.1233 5.3891 -1.1627 0
M  V30 6 Pd 1.3234 5.6820 -6.1626 0
M  V30 7 Pb 2.1328 6.0601 -5.7191 0
M  V30 8 Pb 0.5024 5.2826 -6.5622 0
M  V30 9 Pb 0.7540 6.4236 -5.7733 0
M  V30 10 Pb 1.8604 4.8743 -6.4081 0
M  V30 11 Pd -4.7773 -1.1337 3.0293 0
M  V30 12 Pb -4.4286 -1.0368 3.9559 0
M  V30 13 Pb -4.9419 -1.2860 2.0579 0
M  V30 14 Pb -5.0854 -2.0623 3.2403 0
M  V30 15 Pb -4.4345 -0.2149 2.8274 0
M  V30 16 Pd -2.7534 -6.4621 3.3294 0
M  V30 17 Pb -2.0120 -7.1121 3.2263 0
M  V30 18 Pb -2.4182 -6.3524 4.2638 0
M  V30 19 Pb -2.9355 -6.5401 2.3441 0
M  V30 20 Pb -3.5518 -5.8696 3.4673 0
M  V30 21 Pd 1.2379 3.6980 1.6212 0
M  V30 22 Pb 1.5253 2.7546 1.7963 0
M  V30 23 Pb 2.1943 3.9129 1.4278 0
M  V30 24 Pb 0.2734 3.4796 1.7842 0
M  V30 25 Pb 0.9927 4.6530 1.4426 0
M  V30 26 Pd 4.1702 3.1867 -2.8156 0
M  V30 27 Pb 4.2930 4.1239 -3.1391 0
M  V30 28 Pb 4.0570 2.2491 -2.4783 0
M  V30 29 Pb 3.9746 2.9146 -3.7613 0
M  V30 30 Pb 4.3695 3.4883 -1.8828 0
M  V30 31 Pd 1.4167 -3.7268 4.4936 0
M  V30 32 Pb 1.7885 -2.9370 4.0050 0
M  V30 33 Pb 2.0269 -4.3020 3.9371 0
M  V30 34 Pb 0.8075 -3.1384 5.0213 0
M  V30 35 Pb 0.9752 -4.4862 4.9796 0
M  V30 36 Pd 0.3324 -0.9867 -1.7181 0
M  V30 37 Pb 0.6432 -1.8314 -2.1495 0
M  V30 38 Pb -0.6241 -1.2644 -1.7993 0
M  V30 39 Pb -0.0119 -0.1857 -1.2291 0
M  V30 40 Pb 1.2909 -0.7040 -1.6307 0
M  V30 41 Pd 0.9009 -6.2559 -0.0433 0
M  V30 42 Pb -0.0561 -6.4073 -0.3093 0
M  V30 43 Pb 0.7944 -6.9399 0.6664 0
M  V30 44 Pb 1.7847 -6.0495 0.3749 0
M  V30 45 Pb 1.0523 -5.6411 -0.8203 0
M  V30 46 Ag -2.9233 5.4054 -3.0546 0
M  V30 47 Fe -1.9844 4.9696 -5.1708 0
M  V30 48 Ag -0.1808 5.0213 -6.6848 0
M  V30 49 Ag -2.0933 4.7780 -0.7355 0
M  V30 50 Fe -1.2537 2.5585 -0.7270 0
M  V30 51 Ag -0.3563 0.3650 -0.8536 0
M  V30 52 Ag -4.0159 -1.0149 4.5746 0
M  V30 53 Fe -1.8675 -1.7902 5.2028 0
M  V30 54 Ag 0.2966 -2.7363 5.3902 0
M  V30 55 Ag 1.8178 2.0715 1.9102 0
M  V30 56 Fe 1.8787 -0.1335 2.7936 0
M  V30 57 Ag 2.0594 -2.3559 3.6151 0
M  V30 58 Ag -4.1603 0.4715 2.6933 0
M  V30 59 Fe -2.2976 1.8918 2.2892 0
M  V30 60 Ag -0.4599 3.3438 1.8835 0
M  V30 61 Ag -4.9093 -1.4169 1.3234 0
M  V30 62 Fe -3.2652 -1.4702 -0.3854 0
M  V30 63 Ag -1.3578 -1.4152 -1.7949 0
M  V30 64 Ba -5.3155 -2.7560 3.4129 0
M  V30 65 Ga -4.7133 -4.1041 3.4808 0
M  V30 66 Ba -4.1898 -5.4831 3.5751 0
M  V30 67 Ba 0.8843 -2.4757 -2.4438 0
M  V30 68 Ga 1.0221 -3.8503 -1.9249 0
M  V30 69 Ba 1.1757 -5.2364 -1.4427 0
M  V30 70 Ba 2.2608 4.2457 -6.5014 0
M  V30 71 Ga 3.0591 3.4730 -5.5258 0
M  V30 72 Ba 3.8348 2.7631 -4.4861 0
M  V30 73 Ba -1.4741 7.2451 -3.0844 0
M  V30 74 Ga -0.5736 7.0869 -4.2637 0
M  V30 75 Ba 0.3203 6.9633 -5.4520 0
M  V30 76 Ba 2.5174 -4.6565 3.4823 0
M  V30 77 Ga 2.4744 -5.2902 2.1440 0
M  V30 78 Ba 2.3852 -5.9200 0.8065 0
M  V30 79 Ba -2.9785 -6.5994 1.5919 0
M  V30 80 Ga -1.9213 -6.5592 0.5510 0
M  V30 81 Ba -0.7977 -6.5057 -0.4172 0
M  V30 82 Ba 2.9121 4.0535 1.2653 0
M  V30 83 Ga 3.7241 3.8952 0.0446 0
M  V30 84 Ba 4.5173 3.7284 -1.1874 0
M  V30 85 Ba 2.7415 6.2969 -5.3559 0
M  V30 86 Ga 3.5873 5.6015 -4.3722 0
M  V30 87 Ba 4.3698 4.8221 -3.3990 0
M  V30 88 Ba 4.0072 1.5559 -2.1893 0
M  V30 89 Ga 2.9763 0.5356 -1.9016 0
M  V30 90 Ba 2.0254 -0.5481 -1.5729 0
M  V30 91 Ba -0.9038 6.8031 -0.6059 0
M  V30 92 Ga -0.0296 6.1032 0.3551 0
M  V30 93 Ba 0.8343 5.3752 1.3046 0
M  V30 94 Ba -1.4507 -7.5905 3.1518 0
M  V30 95 Ga -0.3422 -7.5861 2.2010 0
M  V30 96 Ba 0.7058 -7.4546 1.1925 0
M  V30 97 Ba -2.0282 -6.3134 4.9039 0
M  V30 98 Ga -0.7344 -5.6512 5.1826 0
M  V30 99 Ba 0.5607 -4.9657 5.3899 0
M  V30 END ATOM
M  V30 BEGIN BOND
M  V30 1 1 1 2
M  V30 2 1 1 3
M  V30 3 1 1 4
M  V30 4 1 1 5
M  V30 5 1 6 7
M  V30 6 1 6 8
M  V30 7 1 6 9
M  V30 8 1 6 10
M  V30 9 1 11 12
M  V30 10 1 11 13
M  V30 11 1 11 14
M  V30 12 1 11 15
M  V30 13 1 16 17
M  V30 14 1 16 18
M  V30 15 1 16 19
M  V30 16 1 16 20
M  V30 17 1 21 22
M  V30 18 1 21 23
M  V30 19 1 21 24
M  V30 20 1 21 25
M  V30 21 1 26 27
M  V30 22 1 26 28
M  V30 23 1 26 29
M  V30 24 1 26 30
M  V30 25 1 31 32
M  V30 26 1 31 33
M  V30 27 1 31 34
M  V30 28 1 31 35
M  V30 29 1 36 37
M  V30 30 1 36 38
M  V30 31 1 36 39
M  V30 32 1 36 40
M  V30 33 1 41 42
M  V30 34 1 41 43
M  V30 35 1 41 44
M  V30 36 1 41 45
M  V30 37 1 46 47
M  V30 38 1 47 48
M  V30 39 1 49 50
M  V30 40 1 50 51
M  V30 41 1 52 53
M  V30 42 1 53 54
M  V30 43 1 55 56
M  V30 44 1 56 57
M  V30 45 1 58 59
M  V30 46 1 59 60
M  V30 47 1 61 62
M  V30 48 1 62 63
M  V30 49 1 64 65
M  V30 50 1 65 66
M  V30 51 1 67 68
M  V30 52 1 68 69
M  V30 53 1 70 71
M  V30 54 1 71 72
M  V30 55 1 73 74
M  V30 56 1 74 75
M  V30 57 1 76 77
M  V30 58 1 77 78
M  V30 59 1 79 80
M  V30 60 1 80 81
M  V30 61 1 82 83
M  V30 62 1 83 84
M  V30 63 1 85 86
M  V30 64 1 86 87
M  V30 65 1 88 89
M  V30 66 1 89 90
M  V30 67 1 91 92
M  V30 68 1 92 93
M  V30 69 1 94 95
M  V30 70 1 95 96
M  V30 71 1 97 98
M  V30 72 1 98 99
M  V30 73 1 2 91
M  V30 74 1 3 73
M  V30 75 1 4 46
M  V30 76 1 5 49
M  V30 77 1 7 85
M  V30 78 1 8 48
M  V30 79 1 9 75
M  V30 80 1 10 70
M  V30 81 1 12 52
M  V30 82 1 13 61
M  V30 83 1 14 64
M  V30 84 1 15 58
M  V30 85 1 17 94
M  V30 86 1 18 97
M  V30 87 1 19 79
M  V30 88 1 20 66
M  V30 89 1 22 55
M  V30 90 1 23 82
M  V30 91 1 24 60
M  V30 92 1 25 93
M  V30 93 1 27 87
M  V30 94 1 28 88
M  V30 95 1 29 72
M  V30 96 1 30 84
M  V30 97 1 32 57
M  V30 98 1 33 76
M  V30 99 1 34 54
M  V30 100 1 35 99
M  V30 101 1 37 67
M  V30 102 1 38 63
M  V30 103 1 39 51
M  V30 104 1 40 90
M  V30 105 1 42 81
M  V30 106 1 43 96
M  V30 107 1 44 78
M  V30 108 1 45 69
M  V30 END BOND
M  V30 END CTAB
M  END

$$$$
