
     RDKit          3D

  0  0  0  0  0  0  0  0  0  0999 V3000
M  V30 BEGIN CTAB
M  V30 COUNTS 99 108 0 0 0
M  V30 BEGIN ATOM
M  V30 1 Pd -3.6667 -0.0002 1.9102 0
M  V30 2 Pb -3.9221 0.5318 2.7203 0
M  V30 3 Pb -3.4480 -0.5557 1.1073 0
M  V30 4 Pb -4.0962 -0.8138 2.3055 0
M  V30 5 Pb -3.1971 0.8023 1.5297 0
M  V30 6 Pd 1.3972 -0.3751 -9.2547 0
M  V30 7 Pb 2.2247 -0.4517 -8.6999 0
M  V30 8 Pb 1.1825 -1.3424 -9.1147 0
M  V30 9 Pb 1.4704 0.6203 -9.2239 0
M  V30 10 Pb 0.5065 -0.2909 -9.6944 0
M  V30 11 Pd 3.6764 2.0112 3.6181 0
M  V30 12 Pb 3.1320 2.7457 4.0117 0
M  V30 13 Pb 3.3872 2.3126 2.7111 0
M  V30 14 Pb 4.2480 1.2922 3.2193 0
M  V30 15 Pb 3.8022 1.6841 4.5595 0
M  V30 16 Pd 2.8527 -2.9673 1.8663 0
M  V30 17 Pb 3.6729 -2.3989 1.8308 0
M  V30 18 Pb 3.1353 -3.2902 2.7613 0
M  V30 19 Pb 2.5970 -2.6839 0.9421 0
M  V30 20 Pb 1.9885 -3.5034 1.9476 0
M  V30 21 Pd 3.3659 1.1758 -2.2025 0
M  V30 22 Pb 3.7044 0.7889 -3.0616 0
M  V30 23 Pb 3.0265 1.6107 -1.3702 0
M  V30 24 Pb 3.0414 0.2677 -1.9311 0
M  V30 25 Pb 3.5704 2.1025 -2.5106 0
M  V30 26 Pd -2.0014 -4.2141 5.0608 0
M  V30 27 Pb -1.1964 -4.4894 5.5720 0
M  V30 28 Pb -2.4040 -3.9313 5.9288 0
M  V30 29 Pb -2.8260 -3.9257 4.5682 0
M  V30 30 Pb -1.5055 -4.4078 4.1933 0
M  V30 31 Pd -1.2910 1.9517 8.5053 0
M  V30 32 Pb -2.1842 2.1630 8.1155 0
M  V30 33 Pb -1.6608 1.0772 8.8131 0
M  V30 34 Pb -0.3415 1.6718 8.6724 0
M  V30 35 Pb -0.9233 2.7813 8.0998 0
M  V30 36 Pd -0.3027 4.1627 -3.7995 0
M  V30 37 Pb 0.6497 4.4102 -3.6092 0
M  V30 38 Pb -1.2433 3.8764 -3.9905 0
M  V30 39 Pb -0.0679 4.1868 -4.7735 0
M  V30 40 Pb -0.5242 4.0933 -2.8240 0
M  V30 41 Pd -4.0129 -1.8018 -5.7005 0
M  V30 42 Pb -3.4750 -2.5678 -6.0550 0
M  V30 43 Pb -3.8173 -2.0662 -4.7564 0
M  V30 44 Pb -4.3704 -0.9252 -5.3848 0
M  V30 45 Pb -4.1081 -1.4973 -6.6453 0
M  V30 46 Ag 2.7960 -0.4840 -8.2160 0
M  V30 47 Fe 3.4470 -0.0147 -5.9804 0
M  V30 48 Ag 3.9428 0.5117 -3.7177 0
M  V30 49 Ag -4.1196 0.9132 3.3379 0
M  V30 50 Fe -3.5703 1.6440 5.5304 0
M  V30 51 Ag -2.7924 2.2534 7.6901 0
M  V30 52 Ag 3.2193 -3.5660 3.4415 0
M  V30 53 Fe 1.6416 -4.2619 5.0417 0
M  V30 54 Ag -0.5319 -4.6271 5.8642 0
M  V30 55 Ag 3.7560 1.4879 5.2877 0
M  V30 56 Fe 2.1925 1.4195 7.0840 0
M  V30 57 Ag 0.3893 1.4844 8.6397 0
M  V30 58 Ag -0.2128 -0.2677 -9.8903 0
M  V30 59 Fe -2.2950 -0.7041 -8.8486 0
M  V30 60 Ag -4.0429 -1.2676 -7.3523 0
M  V30 61 Ag 0.8845 -2.0035 -8.9195 0
M  V30 62 Fe -0.9970 -2.7656 -7.6838 0
M  V30 63 Ag -2.9720 -3.0167 -6.3860 0
M  V30 64 Ag 2.7166 3.2581 4.3578 0
M  V30 65 Fe 1.0516 3.5138 6.0201 0
M  V30 66 Ag -0.5916 3.3213 7.7119 0
M  V30 67 Ag 1.4326 1.3558 -9.0869 0
M  V30 68 Fe 0.8230 2.8684 -7.3591 0
M  V30 69 Ag 0.1624 4.1779 -5.4896 0
M  V30 70 Ag -2.8279 1.4112 1.2799 0
M  V30 71 Fe -1.7777 2.7022 -0.4205 0
M  V30 72 Ag -0.7220 4.0134 -2.1020 0
M  V30 73 Ag -1.9437 3.6224 -4.0900 0
M  V30 74 Fe -3.3357 1.7713 -4.6173 0
M  V30 75 Ag -4.5047 -0.2177 -5.1810 0
M  V30 76 Ag -3.3252 -1.0226 0.5323 0
M  V30 77 Fe -3.4812 -1.6123 -1.7634 0
M  V30 78 Ag -3.6200 -2.2320 -4.0523 0
M  V30 79 Ag -2.6076 -3.6476 6.5898 0
M  V30 80 Fe -2.3807 -1.6869 7.9054 0
M  V30 81 Ag -1.9707 0.4082 8.9393 0
M  V30 82 Ba 3.6205 2.8215 -2.7117 0
M  V30 83 Ga 2.5360 3.7360 -3.1178 0
M  V30 84 Ba 1.3796 4.5643 -3.5108 0
M  V30 85 Ba 2.4068 -2.5161 0.2364 0
M  V30 86 Ga 2.6090 -1.4271 -0.7394 0
M  V30 87 Ba 2.7416 -0.4091 -1.8000 0
M  V30 88 Ba 1.3394 -3.9159 1.9738 0
M  V30 89 Ga 0.1298 -4.1877 2.8144 0
M  V30 90 Ba -1.1251 -4.5587 3.5434 0
M  V30 91 Ba 4.6844 0.7736 2.8949 0
M  V30 92 Ga 4.4903 -0.5902 2.3675 0
M  V30 93 Ba 4.2743 -1.9535 1.8471 0
M  V30 94 Ba -4.4022 -1.4403 2.5859 0
M  V30 95 Ga -3.9185 -2.5700 3.4070 0
M  V30 96 Ba -3.4619 -3.7122 4.2262 0
M  V30 97 Ba 3.0621 2.5524 2.0802 0
M  V30 98 Ga 2.9729 2.2356 0.6434 0
M  V30 99 Ba 2.7828 2.0372 -0.8047 0
M  V30 END ATOM
M  V30 BEGIN BOND
M  V30 1 1 1 2
M  V30 2 1 1 3
M  V30 3 1 1 4
M  V30 4 1 1 5
M  V30 5 1 6 7
M  V30 6 1 6 8
M  V30 7 1 6 9
M  V30 8 1 6 10
M  V30 9 1 11 12
M  V30 10 1 11 13
M  V30 11 1 11 14
M  V30 12 1 11 15
M  V30 13 1 16 17
M  V30 14 1 16 18
M  V30 15 1 16 19
M  V30 16 1 16 20
M  V30 17 1 21 22
M  V30 18 1 21 23
M  V30 19 1 21 24
M  V30 20 1 21 25
M  V30 21 1 26 27
M  V30 22 1 26 28
M  V30 23 1 26 29
M  V30 24 1 26 30
M  V30 25 1 31 32
M  V30 26 1 31 33
M  V30 27 1 31 34
M  V30 28 1 31 35
M  V30 29 1 36 37
M  V30 30 1 36 38
M  V30 31 1 36 39
M  V30 32 1 36 40
M  V30 33 1 41 42
M  V30 34 1 41 43
M  V30 35 1 41 44
M  V30 36 1 41 45
M  V30 37 1 46 47
M  V30 38 1 47 48
M  V30 39 1 49 50
M  V30 40 1 50 51
M  V30 41 1 52 53
M  V30 42 1 53 54
M  V30 43 1 55 56
M  V30 44 1 56 57
M  V30 45 1 58 59
M  V30 46 1 59 60
M  V30 47 1 61 62
M  V30 48 1 62 63
M  V30 49 1 64 65
M  V30 50 1 65 66
M  V30 51 1 67 68
M  V30 52 1 68 69
M  V30 53 1 70 71
M  V30 54 1 71 72
M  V30 55 1 73 74
M  V30 56 1 74 75
M  V30 57 1 76 77
M  V30 58 1 77 78
M  V30 59 1 79 80
M  V30 60 1 80 81
M  V30 61 1 82 83
M  V30 62 1 83 84
M  V30 63 1 85 86
M  V30 64 1 86 87
M  V30 65 1 88 89
M  V30 66 1 89 90
M  V30 67 1 91 92
M  V30 68 1 92 93
M  V30 69 1 94 95
M  V30 70 1 95 96
M  V30 71 1 97 98
M  V30 72 1 98 99
M  V30 73 1 2 49
M  V30 74 1 3 76
M  V30 75 1 4 94
M  V30 76 1 5 70
M  V30 77 1 7 46
M  V30 78 1 8 61
M  V30 79 1 9 67
M  V30 80 1 10 58
M  V30 81 1 12 64
M  V30 82 1 13 97
M  V30 83 1 14 91
M  V30 84 1 15 55
M  V30 85 1 17 93
M  V30 86 1 18 52
M  V30 87 1 19 85
M  V30 88 1 20 88
M  V30 89 1 22 48
M  V30 90 1 23 99
M  V30 91 1 24 87
M  V30 92 1 25 82
M  V30 93 1 27 54
M  V30 94 1 28 79
M  V30 95 1 29 96
M  V30 96 1 30 90
M  V30 97 1 32 51
M  V30 98 1 33 81
M  V30 99 1 34 57
M  V30 100 1 35 66
M  V30 101 1 37 84
M  V30 102 1 38 73
M  V30 103 1 39 69
M  V30 104 1 40 72
M  V30 105 1 42 63
M  V30 106 1 43 78
M  V30 107 1 44 75
M  V30 108 1 45 60
M  V30 END BOND
M  V30 END CTAB
M  END

$$$$
