
     RDKit          3D

  0  0  0  0  0  0  0  0  0  0999 V3000
M  V30 BEGIN CTAB
M  V30 COUNTS 99 108 0 0 0
M  V30 BEGIN ATOM
M  V30 1 Pd -0.8109 4.3383 -1.9652 0
M  V30 2 Pb -0.6628 4.7522 -1.0691 0
M  V30 3 Pb -0.9546 3.8990 -2.8508 0
M  V30 4 Pb -1.7956 4.3093 -1.7808 0
M  V30 5 Pb 0.1664 4.4302 -2.1627 0
M  V30 6 Pd 3.3476 -3.3592 -5.3333 0
M  V30 7 Pb 2.6345 -3.2803 -4.6376 0
M  V30 8 Pb 2.6570 -3.3346 -6.0707 0
M  V30 9 Pb 4.0445 -3.1188 -4.6616 0
M  V30 10 Pb 4.0654 -3.4799 -6.0147 0
M  V30 11 Pd -0.4255 -1.3029 6.8995 0
M  V30 12 Pb -1.2172 -0.7759 7.2037 0
M  V30 13 Pb 0.3726 -1.8304 6.6019 0
M  V30 14 Pb -0.9971 -2.1221 6.9044 0
M  V30 15 Pb 0.1101 -0.4576 6.8785 0
M  V30 16 Pd -3.2934 -3.8854 3.1059 0
M  V30 17 Pb -3.2054 -3.9398 4.1006 0
M  V30 18 Pb -3.8716 -3.0482 3.1673 0
M  V30 19 Pb -2.6659 -4.6573 3.0326 0
M  V30 20 Pb -3.3634 -3.8605 2.1166 0
M  V30 21 Pd 1.5903 -3.3110 2.1919 0
M  V30 22 Pb 1.2832 -3.3072 1.2404 0
M  V30 23 Pb 1.8797 -3.2972 3.1500 0
M  V30 24 Pb 1.1107 -4.1740 2.3485 0
M  V30 25 Pb 2.0602 -2.4466 2.0162 0
M  V30 26 Pd -4.7398 1.6779 1.1231 0
M  V30 27 Pb -4.8454 0.8861 1.7588 0
M  V30 28 Pb -4.8978 2.3183 1.8771 0
M  V30 29 Pb -4.6484 2.4428 0.4838 0
M  V30 30 Pb -4.6062 1.0523 0.3648 0
M  V30 31 Pd -2.0010 3.4078 5.4708 0
M  V30 32 Pb -1.5796 4.0084 4.7942 0
M  V30 33 Pb -2.9017 3.6347 5.1015 0
M  V30 34 Pb -1.1002 3.1351 5.8120 0
M  V30 35 Pb -2.4230 2.7949 6.1352 0
M  V30 36 Pd 4.0758 1.5511 -3.2712 0
M  V30 37 Pb 3.9470 1.3130 -2.3077 0
M  V30 38 Pb 4.2162 1.8540 -4.2217 0
M  V30 39 Pb 4.5373 0.6616 -3.3781 0
M  V30 40 Pb 3.6584 2.4462 -3.1077 0
M  V30 41 Pd 2.1526 0.7937 -8.2242 0
M  V30 42 Pb 1.7325 -0.1215 -8.3086 0
M  V30 43 Pb 1.3743 1.1146 -7.6857 0
M  V30 44 Pb 2.6983 1.5763 -7.9333 0
M  V30 45 Pb 2.9176 0.4920 -8.7882 0
M  V30 46 Ag 2.1100 -3.2479 -4.1033 0
M  V30 47 Fe 1.5661 -3.2616 -1.7919 0
M  V30 48 Ag 1.0545 -3.2783 0.5269 0
M  V30 49 Ag -0.5570 5.0362 -0.3852 0
M  V30 50 Fe -0.8904 4.7912 1.9510 0
M  V30 51 Ag -1.2807 4.4450 4.2655 0
M  V30 52 Ag 2.3978 -1.7997 1.8453 0
M  V30 53 Fe 3.1398 -0.3172 0.1444 0
M  V30 54 Ag 3.8696 1.1437 -1.5803 0
M  V30 55 Ag 4.5334 -3.4357 -6.5878 0
M  V30 56 Fe 4.5349 -1.7972 -8.2716 0
M  V30 57 Ag 3.4981 0.1450 -9.0914 0
M  V30 58 Ag -3.4329 -3.7231 1.3941 0
M  V30 59 Fe -3.9457 -1.7692 0.1866 0
M  V30 60 Ag -4.4924 0.5002 -0.1126 0
M  V30 61 Ag -1.0557 3.5547 -3.5082 0
M  V30 62 Fe -0.1362 2.4600 -5.4036 0
M  V30 63 Ag 0.7832 1.3650 -7.2989 0
M  V30 64 Ba -2.1448 -5.1898 2.9749 0
M  V30 65 Ga -0.7008 -5.0572 2.7198 0
M  V30 66 Ba 0.7271 -4.8082 2.4600 0
M  V30 67 Ba -4.3140 -2.4246 3.2463 0
M  V30 68 Ga -4.5770 -1.0619 2.6826 0
M  V30 69 Ba -4.9813 0.3167 2.2592 0
M  V30 70 Ba 0.4747 0.1984 6.8570 0
M  V30 71 Ga 0.0505 1.5577 6.4666 0
M  V30 72 Ba -0.4352 2.8922 6.0626 0
M  V30 73 Ba 2.1603 -3.2233 -6.6383 0
M  V30 74 Ga 1.8057 -2.0402 -7.4774 0
M  V30 75 Ba 1.4741 -0.8387 -8.2995 0
M  V30 76 Ba -1.8058 -0.3694 7.4238 0
M  V30 77 Ga -2.2901 0.9689 7.0485 0
M  V30 78 Ba -2.7160 2.3129 6.6258 0
M  V30 79 Ba -1.4663 -2.7062 6.9057 0
M  V30 80 Ga -2.2885 -3.3656 5.8744 0
M  V30 81 Ba -3.1096 -4.0221 4.8402 0
M  V30 82 Ba 4.5682 -2.8142 -4.2213 0
M  V30 83 Ga 4.7326 -1.4104 -3.7790 0
M  V30 84 Ba 4.8986 -0.0044 -3.3441 0
M  V30 85 Ba -2.5361 4.3371 -1.6519 0
M  V30 86 Ga -3.5426 3.6483 -0.8185 0
M  V30 87 Ba -4.6000 3.0036 -0.0133 0
M  V30 88 Ba 0.8926 4.5541 -2.3098 0
M  V30 89 Ga 2.1146 3.7975 -2.6473 0
M  V30 90 Ba 3.3905 3.1374 -2.9878 0
M  V30 91 Ba 4.2979 2.1926 -4.8951 0
M  V30 92 Ga 3.7362 2.1352 -6.2642 0
M  V30 93 Ba 3.1771 2.0685 -7.6339 0
M  V30 94 Ba -5.0313 2.8059 2.4336 0
M  V30 95 Ga -4.3028 3.2953 3.6204 0
M  V30 96 Ba -3.5747 3.7850 4.8073 0
M  V30 97 Ba 0.9801 -2.2200 6.3909 0
M  V30 98 Ga 1.5252 -2.7511 5.1251 0
M  V30 99 Ba 2.0889 -3.2909 3.8712 0
M  V30 END ATOM
M  V30 BEGIN BOND
M  V30 1 1 1 2
M  V30 2 1 1 3
M  V30 3 1 1 4
M  V30 4 1 1 5
M  V30 5 1 6 7
M  V30 6 1 6 8
M  V30 7 1 6 9
M  V30 8 1 6 10
M  V30 9 1 11 12
M  V30 10 1 11 13
M  V30 11 1 11 14
M  V30 12 1 11 15
M  V30 13 1 16 17
M  V30 14 1 16 18
M  V30 15 1 16 19
M  V30 16 1 16 20
M  V30 17 1 21 22
M  V30 18 1 21 23
M  V30 19 1 21 24
M  V30 20 1 21 25
M  V30 21 1 26 27
M  V30 22 1 26 28
M  V30 23 1 26 29
M  V30 24 1 26 30
M  V30 25 1 31 32
M  V30 26 1 31 33
M  V30 27 1 31 34
M  V30 28 1 31 35
M  V30 29 1 36 37
M  V30 30 1 36 38
M  V30 31 1 36 39
M  V30 32 1 36 40
M  V30 33 1 41 42
M  V30 34 1 41 43
M  V30 35 1 41 44
M  V30 36 1 41 45
M  V30 37 1 46 47
M  V30 38 1 47 48
M  V30 39 1 49 50
M  V30 40 1 50 51
M  V30 41 1 52 53
M  V30 42 1 53 54
M  V30 43 1 55 56
M  V30 44 1 56 57
M  V30 45 1 58 59
M  V30 46 1 59 60
M  V30 47 1 61 62
M  V30 48 1 62 63
M  V30 49 1 64 65
M  V30 50 1 65 66
M  V30 51 1 67 68
M  V30 52 1 68 69
M  V30 53 1 70 71
M  V30 54 1 71 72
M  V30 55 1 73 74
M  V30 56 1 74 75
M  V30 57 1 76 77
M  V30 58 1 77 78
M  V30 59 1 79 80
M  V30 60 1 80 81
M  V30 61 1 82 83
M  V30 62 1 83 84
M  V30 63 1 85 86
M  V30 64 1 86 87
M  V30 65 1 88 89
M  V30 66 1 89 90
M  V30 67 1 91 92
M  V30 68 1 92 93
M  V30 69 1 94 95
M  V30 70 1 95 96
M  V30 71 1 97 98
M  V30 72 1 98 99
M  V30 73 1 2 49
M  V30 74 1 3 61
M  V30 75 1 4 85
M  V30 76 1 5 88
M  V30 77 1 7 46
M  V30 78 1 8 73
M  V30 79 1 9 82
M  V30 80 1 10 55
M  V30 81 1 12 76
M  V30 82 1 13 97
M  V30 83 1 14 79
M  V30 84 1 15 70
M  V30 85 1 17 81
M  V30 86 1 18 67
M  V30 87 1 19 64
M  V30 88 1 20 58
M  V30 89 1 22 48
M  V30 90 1 23 99
M  V30 91 1 24 66
M  V30 92 1 25 52
M  V30 93 1 27 69
M  V30 94 1 28 94
M  V30 95 1 29 87
M  V30 96 1 30 60
M  V30 97 1 32 51
M  V30 98 1 33 96
M  V30 99 1 34 72
M  V30 100 1 35 78
M  V30 101 1 37 54
M  V30 102 1 38 91
M  V30 103 1 39 84
M  V30 104 1 40 90
M  V30 105 1 42 75
M  V30 106 1 43 63
M  V30 107 1 44 93
M  V30 108 1 45 57
M  V30 END BOND
M  V30 END CTAB
M  END

$$$$
