
     RDKit          3D

  0  0  0  0  0  0  0  0  0  0999 V3000
M  V30 BEGIN CTAB
M  V30 COUNTS 99 108 0 0 0
M  V30 BEGIN ATOM
M  V30 1 Pd -1.1711 4.4746 0.7612 0
M  V30 2 Pb -2.0663 4.2834 0.3474 0
M  V30 3 Pb -0.3777 4.8327 1.2605 0
M  V30 4 Pb -1.2705 3.7891 1.4855 0
M  V30 5 Pb -0.9829 5.0692 -0.0218 0
M  V30 6 Pd 7.1553 0.3959 1.8069 0
M  V30 7 Pb 6.5463 -0.3921 1.7272 0
M  V30 8 Pb 7.1889 0.2793 2.7964 0
M  V30 9 Pb 7.0623 0.5635 0.8260 0
M  V30 10 Pb 7.6770 1.2563 1.9156 0
M  V30 11 Pd -4.9437 -3.4970 -4.9039 0
M  V30 12 Pb -5.6185 -3.0020 -4.3240 0
M  V30 13 Pb -4.1578 -3.9032 -5.3587 0
M  V30 14 Pb -4.9238 -4.3052 -4.3144 0
M  V30 15 Pb -4.9154 -2.7195 -5.5206 0
M  V30 16 Pd -1.9394 -6.6720 1.1893 0
M  V30 17 Pb -2.3362 -7.0039 0.3363 0
M  V30 18 Pb -2.8245 -6.8386 1.6034 0
M  V30 19 Pb -1.0237 -6.6264 0.7787 0
M  V30 20 Pb -1.6491 -6.1724 2.0307 0
M  V30 21 Pd 1.6080 -3.6788 -2.0306 0
M  V30 22 Pb 2.1666 -3.3771 -1.2575 0
M  V30 23 Pb 1.1053 -4.0169 -2.8250 0
M  V30 24 Pb 1.6001 -4.5866 -1.6123 0
M  V30 25 Pb 1.5228 -2.7573 -2.4164 0
M  V30 26 Pd -3.5241 -2.1152 4.4104 0
M  V30 27 Pb -4.2312 -2.7943 4.5612 0
M  V30 28 Pb -4.2376 -1.4351 4.2700 0
M  V30 29 Pb -2.8513 -1.3848 4.2901 0
M  V30 30 Pb -2.8192 -2.8539 4.3731 0
M  V30 31 Pd -5.7384 1.4342 -1.6927 0
M  V30 32 Pb -5.3548 2.3078 -1.3924 0
M  V30 33 Pb -5.9474 1.2283 -0.7375 0
M  V30 34 Pb -5.5593 1.6842 -2.6366 0
M  V30 35 Pb -6.1078 0.5358 -2.0108 0
M  V30 36 Pd 2.6211 4.0361 -2.8975 0
M  V30 37 Pb 2.0921 3.2394 -3.1873 0
M  V30 38 Pb 3.1803 4.7928 -2.5686 0
M  V30 39 Pb 3.4389 3.4609 -2.9069 0
M  V30 40 Pb 1.8080 4.6199 -2.8293 0
M  V30 41 Pd 6.0580 5.6021 3.3528 0
M  V30 42 Pb 6.0999 5.1521 4.2415 0
M  V30 43 Pb 5.1334 5.9368 3.5226 0
M  V30 44 Pb 6.0004 6.0163 2.4480 0
M  V30 45 Pb 6.9037 5.1158 3.0917 0
M  V30 46 Ag 6.0404 -0.9432 1.6834 0
M  V30 47 Fe 4.3321 -2.0687 0.4766 0
M  V30 48 Ag 2.6130 -3.2398 -0.6697 0
M  V30 49 Ag 1.3697 -2.0913 -2.7325 0
M  V30 50 Fe 1.5758 0.2561 -3.0417 0
M  V30 51 Ag 1.7526 2.6012 -3.3859 0
M  V30 52 Ag -3.4649 -6.8869 1.9670 0
M  V30 53 Fe -4.5619 -5.4108 3.4272 0
M  V30 54 Ag -4.6963 -3.3662 4.5733 0
M  V30 55 Ag -4.8963 -2.0662 -5.8655 0
M  V30 56 Fe -5.1105 0.1260 -5.0384 0
M  V30 57 Ag -5.4366 1.7454 -3.3630 0
M  V30 58 Ag 7.1570 0.3797 3.5312 0
M  V30 59 Fe 6.6895 2.3706 4.7037 0
M  V30 60 Ag 6.1818 4.6708 4.8011 0
M  V30 61 Ag -4.8130 -4.9462 -3.9385 0
M  V30 62 Fe -3.7972 -6.1142 -2.1370 0
M  V30 63 Ag -2.7340 -7.1473 -0.2813 0
M  V30 64 Ag 6.9428 0.7192 0.1027 0
M  V30 65 Fe 5.5447 1.8476 -1.4498 0
M  V30 66 Ag 4.0508 3.0293 -2.8675 0
M  V30 67 Ag -1.2269 3.2561 2.0153 0
M  V30 68 Fe -1.8470 1.2288 3.0905 0
M  V30 69 Ag -2.4071 -0.7831 4.2261 0
M  V30 70 Ag 3.6229 5.3151 -2.2712 0
M  V30 71 Fe 4.8112 5.9181 -0.3108 0
M  V30 72 Ag 5.9005 6.2913 1.7611 0
M  V30 73 Ag 0.1343 5.1663 1.7028 0
M  V30 74 Fe 2.2751 5.6343 2.6246 0
M  V30 75 Ag 4.4076 6.1179 3.5579 0
M  V30 76 Ag -4.7613 -0.9579 4.0370 0
M  V30 77 Fe -5.5030 0.1324 2.0652 0
M  V30 78 Ag -6.0884 1.1246 -0.0087 0
M  V30 79 Ag -3.4949 -4.1807 -5.5531 0
M  V30 80 Fe -1.3175 -4.2965 -4.6227 0
M  V30 81 Ag 0.7337 -4.2449 -3.4341 0
M  V30 82 Ba -2.7603 4.3077 0.0507 0
M  V30 83 Ga -3.8765 3.5507 -0.5541 0
M  V30 84 Ba -5.0898 2.9741 -1.1722 0
M  V30 85 Ba -0.3351 -6.6827 0.4747 0
M  V30 86 Ga 0.5990 -5.9388 -0.3966 0
M  V30 87 Ba 1.5800 -5.2485 -1.2606 0
M  V30 88 Ba 8.0579 1.9089 2.0165 0
M  V30 89 Ga 7.7622 3.3045 2.4484 0
M  V30 90 Ba 7.5095 4.7102 2.8749 0
M  V30 91 Ba -6.1072 -2.6201 -3.8700 0
M  V30 92 Ga -6.1974 -1.3504 -3.0772 0
M  V30 93 Ba -6.4289 -0.1260 -2.2432 0
M  V30 94 Ba -1.4583 -5.7748 2.6637 0
M  V30 95 Ga -1.9198 -4.5862 3.4584 0
M  V30 96 Ba -2.2937 -3.4175 4.3253 0
M  V30 97 Ba -0.8328 5.4534 -0.6498 0
M  V30 98 Ga 0.1903 5.2847 -1.7039 0
M  V30 99 Ba 1.2254 5.0895 -2.7417 0
M  V30 END ATOM
M  V30 BEGIN BOND
M  V30 1 1 1 2
M  V30 2 1 1 3
M  V30 3 1 1 4
M  V30 4 1 1 5
M  V30 5 1 6 7
M  V30 6 1 6 8
M  V30 7 1 6 9
M  V30 8 1 6 10
M  V30 9 1 11 12
M  V30 10 1 11 13
M  V30 11 1 11 14
M  V30 12 1 11 15
M  V30 13 1 16 17
M  V30 14 1 16 18
M  V30 15 1 16 19
M  V30 16 1 16 20
M  V30 17 1 21 22
M  V30 18 1 21 23
M  V30 19 1 21 24
M  V30 20 1 21 25
M  V30 21 1 26 27
M  V30 22 1 26 28
M  V30 23 1 26 29
M  V30 24 1 26 30
M  V30 25 1 31 32
M  V30 26 1 31 33
M  V30 27 1 31 34
M  V30 28 1 31 35
M  V30 29 1 36 37
M  V30 30 1 36 38
M  V30 31 1 36 39
M  V30 32 1 36 40
M  V30 33 1 41 42
M  V30 34 1 41 43
M  V30 35 1 41 44
M  V30 36 1 41 45
M  V30 37 1 46 47
M  V30 38 1 47 48
M  V30 39 1 49 50
M  V30 40 1 50 51
M  V30 41 1 52 53
M  V30 42 1 53 54
M  V30 43 1 55 56
M  V30 44 1 56 57
M  V30 45 1 58 59
M  V30 46 1 59 60
M  V30 47 1 61 62
M  V30 48 1 62 63
M  V30 49 1 64 65
M  V30 50 1 65 66
M  V30 51 1 67 68
M  V30 52 1 68 69
M  V30 53 1 70 71
M  V30 54 1 71 72
M  V30 55 1 73 74
M  V30 56 1 74 75
M  V30 57 1 76 77
M  V30 58 1 77 78
M  V30 59 1 79 80
M  V30 60 1 80 81
M  V30 61 1 82 83
M  V30 62 1 83 84
M  V30 63 1 85 86
M  V30 64 1 86 87
M  V30 65 1 88 89
M  V30 66 1 89 90
M  V30 67 1 91 92
M  V30 68 1 92 93
M  V30 69 1 94 95
M  V30 70 1 95 96
M  V30 71 1 97 98
M  V30 72 1 98 99
M  V30 73 1 2 82
M  V30 74 1 3 73
M  V30 75 1 4 67
M  V30 76 1 5 97
M  V30 77 1 7 46
M  V30 78 1 8 58
M  V30 79 1 9 64
M  V30 80 1 10 88
M  V30 81 1 12 91
M  V30 82 1 13 79
M  V30 83 1 14 61
M  V30 84 1 15 55
M  V30 85 1 17 63
M  V30 86 1 18 52
M  V30 87 1 19 85
M  V30 88 1 20 94
M  V30 89 1 22 48
M  V30 90 1 23 81
M  V30 91 1 24 87
M  V30 92 1 25 49
M  V30 93 1 27 54
M  V30 94 1 28 76
M  V30 95 1 29 69
M  V30 96 1 30 96
M  V30 97 1 32 84
M  V30 98 1 33 78
M  V30 99 1 34 57
M  V30 100 1 35 93
M  V30 101 1 37 51
M  V30 102 1 38 70
M  V30 103 1 39 66
M  V30 104 1 40 99
M  V30 105 1 42 60
M  V30 106 1 43 75
M  V30 107 1 44 72
M  V30 108 1 45 90
M  V30 END BOND
M  V30 END CTAB
M  END

$$$$
