
     RDKit          3D

  0  0  0  0  0  0  0  0  0  0999 V3000
M  V30 BEGIN CTAB
M  V30 COUNTS 99 108 0 0 0
M  V30 BEGIN ATOM
M  V30 1 Pd -1.4777 2.2912 -3.3576 0
M  V30 2 Pb -0.5990 2.6640 -3.6518 0
M  V30 3 Pb -1.3173 2.7791 -2.4986 0
M  V30 4 Pb -1.5980 1.8245 -4.2378 0
M  V30 5 Pb -2.3547 1.9118 -3.0534 0
M  V30 6 Pd -2.8022 3.9443 5.5687 0
M  V30 7 Pb -2.0616 3.3255 5.2981 0
M  V30 8 Pb -2.1598 4.7254 5.5397 0
M  V30 9 Pb -3.4917 3.2294 5.4498 0
M  V30 10 Pb -3.5128 4.5724 5.8798 0
M  V30 11 Pd 5.6779 -3.5313 1.8314 0
M  V30 12 Pb 5.8849 -2.5498 1.8584 0
M  V30 13 Pb 5.2041 -3.5092 2.7159 0
M  V30 14 Pb 5.4153 -4.4788 1.6583 0
M  V30 15 Pb 6.1690 -3.5539 0.9662 0
M  V30 16 Pd 0.2260 -7.1016 -1.8249 0
M  V30 17 Pb 1.1762 -7.1949 -1.5277 0
M  V30 18 Pb 0.4766 -6.7365 -2.7428 0
M  V30 19 Pb -0.0040 -7.3474 -0.8866 0
M  V30 20 Pb -0.7338 -7.0023 -2.0599 0
M  V30 21 Pd 0.5378 -3.0124 4.0414 0
M  V30 22 Pb 0.6081 -2.0222 4.1709 0
M  V30 23 Pb 1.4809 -3.1363 4.3568 0
M  V30 24 Pb 0.4340 -3.9921 3.8791 0
M  V30 25 Pb -0.3916 -2.9000 3.6939 0
M  V30 26 Pd -0.3748 -2.6340 -5.7989 0
M  V30 27 Pb 0.0349 -3.5308 -5.5325 0
M  V30 28 Pb 0.5183 -2.2936 -6.0968 0
M  V30 29 Pb -0.7860 -1.7505 -6.0353 0
M  V30 30 Pb -1.2696 -2.9771 -5.5383 0
M  V30 31 Pd 5.8654 0.8414 -3.7095 0
M  V30 32 Pb 5.2613 1.6277 -3.8176 0
M  V30 33 Pb 5.5405 0.5098 -4.5924 0
M  V30 34 Pb 6.4020 0.0139 -3.5865 0
M  V30 35 Pb 6.0734 1.0604 -2.7520 0
M  V30 36 Pd -5.0109 1.4552 1.1135 0
M  V30 37 Pb -4.7465 0.5199 1.3377 0
M  V30 38 Pb -5.2450 2.3978 0.8734 0
M  V30 39 Pb -5.1410 1.5974 2.1007 0
M  V30 40 Pb -4.8936 1.2732 0.1355 0
M  V30 41 Pd -2.4218 7.8881 2.1167 0
M  V30 42 Pb -1.8351 7.7741 2.9275 0
M  V30 43 Pb -1.8631 7.2090 1.6413 0
M  V30 44 Pb -3.1207 7.7709 1.4186 0
M  V30 45 Pb -3.0482 8.4514 2.6517 0
M  V30 46 Ag -1.4732 2.8910 5.1217 0
M  V30 47 Fe -0.4413 0.7942 4.6874 0
M  V30 48 Ag 0.6408 -1.2753 4.2440 0
M  V30 49 Ag 0.0737 2.9502 -3.8145 0
M  V30 50 Fe 2.4238 2.6334 -3.8992 0
M  V30 51 Ag 4.7484 2.1590 -3.9331 0
M  V30 52 Ag -1.0814 -2.8385 3.4094 0
M  V30 53 Fe -2.8183 -1.5216 2.4722 0
M  V30 54 Ag -4.5279 -0.1656 1.5403 0
M  V30 55 Ag -0.0934 -7.4349 -0.1504 0
M  V30 56 Fe 0.0648 -6.2012 1.8689 0
M  V30 57 Ag 0.3000 -4.7048 3.6942 0
M  V30 58 Ag 6.5245 -3.5165 0.3129 0
M  V30 59 Fe 6.7693 -2.1917 -1.6328 0
M  V30 60 Ag 6.7399 -0.6222 -3.4036 0
M  V30 61 Ag -3.9687 5.1433 6.0213 0
M  V30 62 Fe -4.1887 7.2149 4.9205 0
M  V30 63 Ag -3.5418 8.6487 3.1684 0
M  V30 64 Ag 6.0321 -1.8204 1.7349 0
M  V30 65 Fe 6.1548 -0.2326 -0.0353 0
M  V30 66 Ag 6.1906 1.1010 -2.0075 0
M  V30 67 Ag -1.4067 -6.8122 -2.3008 0
M  V30 68 Fe -2.1202 -5.1318 -3.7881 0
M  V30 69 Ag -1.8675 -3.3303 -5.2833 0
M  V30 70 Ag 5.2079 -5.1484 1.3941 0
M  V30 71 Fe 3.5656 -6.2862 0.1099 0
M  V30 72 Ag 1.8415 -7.2761 -1.1896 0
M  V30 73 Ag -5.3673 3.1009 0.6404 0
M  V30 74 Fe -4.6522 5.3629 0.6899 0
M  V30 75 Ag -3.6730 7.5015 0.9976 0
M  V30 76 Ag -1.1007 3.1769 -1.8991 0
M  V30 77 Fe -1.3279 4.9204 -0.3012 0
M  V30 78 Ag -1.4863 6.6393 1.3313 0
M  V30 79 Ag 1.1800 -2.0260 -6.3310 0
M  V30 80 Fe 3.2210 -0.9116 -5.8498 0
M  V30 81 Ag 5.2056 0.2137 -5.1919 0
M  V30 82 Ba 0.6766 -6.4645 -3.4335 0
M  V30 83 Ga 0.4646 -5.2972 -4.3494 0
M  V30 84 Ba 0.3606 -4.2117 -5.3773 0
M  V30 85 Ba -1.7017 5.3317 5.4780 0
M  V30 86 Ga -1.5657 6.4686 4.5236 0
M  V30 87 Ba -1.4483 7.5965 3.5561 0
M  V30 88 Ba -4.0489 2.7463 5.3076 0
M  V30 89 Ga -4.6291 2.1865 4.0663 0
M  V30 90 Ba -5.2422 1.6072 2.8500 0
M  V30 91 Ba -1.6914 1.4947 -4.9087 0
M  V30 92 Ga -1.3853 0.1919 -5.5388 0
M  V30 93 Ba -1.1024 -1.0920 -6.2166 0
M  V30 94 Ba -3.0165 1.5989 -2.8782 0
M  V30 95 Ga -3.8940 1.3907 -1.7076 0
M  V30 96 Ba -4.8384 1.1323 -0.6007 0
M  V30 97 Ba 4.8784 -3.4973 3.3954 0
M  V30 98 Ga 3.5215 -3.3605 3.9673 0
M  V30 99 Ba 2.1886 -3.2287 4.5942 0
M  V30 END ATOM
M  V30 BEGIN BOND
M  V30 1 1 1 2
M  V30 2 1 1 3
M  V30 3 1 1 4
M  V30 4 1 1 5
M  V30 5 1 6 7
M  V30 6 1 6 8
M  V30 7 1 6 9
M  V30 8 1 6 10
M  V30 9 1 11 12
M  V30 10 1 11 13
M  V30 11 1 11 14
M  V30 12 1 11 15
M  V30 13 1 16 17
M  V30 14 1 16 18
M  V30 15 1 16 19
M  V30 16 1 16 20
M  V30 17 1 21 22
M  V30 18 1 21 23
M  V30 19 1 21 24
M  V30 20 1 21 25
M  V30 21 1 26 27
M  V30 22 1 26 28
M  V30 23 1 26 29
M  V30 24 1 26 30
M  V30 25 1 31 32
M  V30 26 1 31 33
M  V30 27 1 31 34
M  V30 28 1 31 35
M  V30 29 1 36 37
M  V30 30 1 36 38
M  V30 31 1 36 39
M  V30 32 1 36 40
M  V30 33 1 41 42
M  V30 34 1 41 43
M  V30 35 1 41 44
M  V30 36 1 41 45
M  V30 37 1 46 47
M  V30 38 1 47 48
M  V30 39 1 49 50
M  V30 40 1 50 51
M  V30 41 1 52 53
M  V30 42 1 53 54
M  V30 43 1 55 56
M  V30 44 1 56 57
M  V30 45 1 58 59
M  V30 46 1 59 60
M  V30 47 1 61 62
M  V30 48 1 62 63
M  V30 49 1 64 65
M  V30 50 1 65 66
M  V30 51 1 67 68
M  V30 52 1 68 69
M  V30 53 1 70 71
M  V30 54 1 71 72
M  V30 55 1 73 74
M  V30 56 1 74 75
M  V30 57 1 76 77
M  V30 58 1 77 78
M  V30 59 1 79 80
M  V30 60 1 80 81
M  V30 61 1 82 83
M  V30 62 1 83 84
M  V30 63 1 85 86
M  V30 64 1 86 87
M  V30 65 1 88 89
M  V30 66 1 89 90
M  V30 67 1 91 92
M  V30 68 1 92 93
M  V30 69 1 94 95
M  V30 70 1 95 96
M  V30 71 1 97 98
M  V30 72 1 98 99
M  V30 73 1 2 49
M  V30 74 1 3 76
M  V30 75 1 4 91
M  V30 76 1 5 94
M  V30 77 1 7 46
M  V30 78 1 8 85
M  V30 79 1 9 88
M  V30 80 1 10 61
M  V30 81 1 12 64
M  V30 82 1 13 97
M  V30 83 1 14 70
M  V30 84 1 15 58
M  V30 85 1 17 72
M  V30 86 1 18 82
M  V30 87 1 19 55
M  V30 88 1 20 67
M  V30 89 1 22 48
M  V30 90 1 23 99
M  V30 91 1 24 57
M  V30 92 1 25 52
M  V30 93 1 27 84
M  V30 94 1 28 79
M  V30 95 1 29 93
M  V30 96 1 30 69
M  V30 97 1 32 51
M  V30 98 1 33 81
M  V30 99 1 34 60
M  V30 100 1 35 66
M  V30 101 1 37 54
M  V30 102 1 38 73
M  V30 103 1 39 90
M  V30 104 1 40 96
M  V30 105 1 42 87
M  V30 106 1 43 78
M  V30 107 1 44 75
M  V30 108 1 45 63
M  V30 END BOND
M  V30 END CTAB
M  END

$$$$
