
     RDKit          3D

  0  0  0  0  0  0  0  0  0  0999 V3000
M  V30 BEGIN CTAB
M  V30 COUNTS 99 108 0 0 0
M  V30 BEGIN ATOM
M  V30 1 Pd 2.2978 2.1823 -2.9706 0
M  V30 2 Pb 2.1405 3.0414 -2.4702 0
M  V30 3 Pb 2.5593 1.3878 -3.5169 0
M  V30 4 Pb 1.5339 2.2933 -3.6135 0
M  V30 5 Pb 3.1066 2.0440 -2.3965 0
M  V30 6 Pd 2.5843 -6.5914 0.6856 0
M  V30 7 Pb 1.7006 -6.1278 0.7300 0
M  V30 8 Pb 3.4783 -7.0192 0.5926 0
M  V30 9 Pb 2.9610 -6.0335 1.4248 0
M  V30 10 Pb 2.3394 -7.0014 -0.1926 0
M  V30 11 Pd -3.1009 4.0568 4.6617 0
M  V30 12 Pb -3.3221 4.8549 4.1037 0
M  V30 13 Pb -2.8947 3.2465 5.2112 0
M  V30 14 Pb -4.0648 3.7967 4.7004 0
M  V30 15 Pb -2.1293 4.2865 4.5712 0
M  V30 16 Pd -6.8566 -0.7794 1.1156 0
M  V30 17 Pb -7.1928 -0.2070 1.8598 0
M  V30 18 Pb -7.1560 -0.0997 0.4531 0
M  V30 19 Pb -6.5310 -1.4354 1.7975 0
M  V30 20 Pb -6.3957 -1.2394 0.3506 0
M  V30 21 Pd -2.2321 -1.3540 3.7803 0
M  V30 22 Pb -2.0587 -2.0139 3.0519 0
M  V30 23 Pb -2.3737 -0.7210 4.5436 0
M  V30 24 Pb -3.1389 -1.7626 3.8888 0
M  V30 25 Pb -1.3253 -0.9597 3.6397 0
M  V30 26 Pd -3.4304 2.1842 -4.3911 0
M  V30 27 Pb -4.3524 2.3105 -4.0379 0
M  V30 28 Pb -3.3144 3.1700 -4.4640 0
M  V30 29 Pb -2.4906 2.0932 -4.7248 0
M  V30 30 Pb -3.5459 1.2088 -4.1799 0
M  V30 31 Pd -0.5387 6.1082 0.5789 0
M  V30 32 Pb 0.2994 5.8289 0.1040 0
M  V30 33 Pb -0.9213 6.3667 -0.3045 0
M  V30 34 Pb -0.1814 5.8204 1.4701 0
M  V30 35 Pb -1.3832 6.3919 1.0313 0
M  V30 36 Pd 4.8939 -1.5777 0.4994 0
M  V30 37 Pb 4.1597 -1.1866 1.0540 0
M  V30 38 Pb 5.6789 -1.9002 -0.0447 0
M  V30 39 Pb 4.8034 -2.4173 1.0515 0
M  V30 40 Pb 4.9888 -0.6958 0.0330 0
M  V30 41 Pd 6.2433 -4.3948 -4.0182 0
M  V30 42 Pb 6.6776 -5.1326 -3.5112 0
M  V30 43 Pb 5.7309 -3.6582 -4.4545 0
M  V30 44 Pb 6.7903 -3.7472 -3.4887 0
M  V30 45 Pb 5.5713 -5.0601 -4.3429 0
M  V30 46 Ag 1.0430 -5.7695 0.7264 0
M  V30 47 Fe -0.4440 -4.1525 1.6243 0
M  V30 48 Ag -1.9235 -2.5333 2.5309 0
M  V30 49 Ag -0.6466 -0.6657 3.5230 0
M  V30 50 Fe 1.4897 -0.7868 2.4941 0
M  V30 51 Ag 3.6379 -0.8653 1.4862 0
M  V30 52 Ag -7.3041 0.4018 -0.0770 0
M  V30 53 Fe -6.3140 1.4787 -1.9388 0
M  V30 54 Ag -5.0251 2.3552 -3.7212 0
M  V30 55 Ag 2.3038 -7.1924 -0.9166 0
M  V30 56 Fe 3.5039 -6.5614 -2.8657 0
M  V30 57 Ag 5.0171 -5.5620 -4.3984 0
M  V30 58 Ag 4.1605 -7.2586 0.4181 0
M  V30 59 Fe 5.7747 -6.7091 -1.2187 0
M  V30 60 Ag 6.8665 -5.6778 -3.0434 0
M  V30 61 Ag -6.0138 -1.4612 -0.2626 0
M  V30 62 Fe -4.8272 -0.6096 -2.1449 0
M  V30 63 Ag -3.7073 0.5177 -3.9201 0
M  V30 64 Ag -4.7676 3.5386 4.6915 0
M  V30 65 Fe -6.1967 1.9574 3.6496 0
M  V30 66 Ag -7.3284 0.2840 2.4063 0
M  V30 67 Ag 2.7928 0.8366 -3.9676 0
M  V30 68 Fe 4.0420 -1.1420 -4.3645 0
M  V30 69 Ag 5.2950 -3.1223 -4.7411 0
M  V30 70 Ag -3.1772 3.8987 -4.3968 0
M  V30 71 Fe -2.2278 5.3766 -2.8083 0
M  V30 72 Ag -1.2183 6.4903 -0.9779 0
M  V30 73 Ba 2.1748 3.6981 -2.0953 0
M  V30 74 Ga 1.4697 4.6270 -1.1829 0
M  V30 75 Ba 0.9260 5.6686 -0.2811 0
M  V30 76 Ba -6.2988 -1.8848 2.3525 0
M  V30 77 Ga -5.0556 -2.0001 3.1404 0
M  V30 78 Ba -3.8064 -2.1046 3.9201 0
M  V30 79 Ba -1.4055 4.4633 4.4641 0
M  V30 80 Ga -0.6597 5.0313 3.3203 0
M  V30 81 Ba 0.0470 5.6011 2.1528 0
M  V30 82 Ba -3.4664 5.4491 3.6722 0
M  V30 83 Ga -2.7598 6.0411 2.5231 0
M  V30 84 Ba -2.0154 6.5940 1.3785 0
M  V30 85 Ba 3.3352 -5.5867 1.8991 0
M  V30 86 Ga 4.0065 -4.2776 1.7108 0
M  V30 87 Ba 4.6951 -2.9731 1.5578 0
M  V30 88 Ba 1.0412 2.2875 -4.1858 0
M  V30 89 Ga -0.3974 2.1974 -4.5187 0
M  V30 90 Ba -1.7928 2.1139 -5.0038 0
M  V30 91 Ba 3.7397 1.9590 -2.0008 0
M  V30 92 Ga 4.3775 0.9416 -1.1402 0
M  V30 93 Ba 5.0913 -0.0151 -0.2699 0
M  V30 94 Ba 6.2994 -2.0262 -0.4628 0
M  V30 95 Ga 6.7119 -2.6738 -1.7307 0
M  V30 96 Ba 7.1533 -3.3173 -2.9911 0
M  V30 97 Ba -2.7859 2.6315 5.6277 0
M  V30 98 Ga -2.6087 1.1897 5.3616 0
M  V30 99 Ba -2.4301 -0.2584 5.1335 0
M  V30 END ATOM
M  V30 BEGIN BOND
M  V30 1 1 1 2
M  V30 2 1 1 3
M  V30 3 1 1 4
M  V30 4 1 1 5
M  V30 5 1 6 7
M  V30 6 1 6 8
M  V30 7 1 6 9
M  V30 8 1 6 10
M  V30 9 1 11 12
M  V30 10 1 11 13
M  V30 11 1 11 14
M  V30 12 1 11 15
M  V30 13 1 16 17
M  V30 14 1 16 18
M  V30 15 1 16 19
M  V30 16 1 16 20
M  V30 17 1 21 22
M  V30 18 1 21 23
M  V30 19 1 21 24
M  V30 20 1 21 25
M  V30 21 1 26 27
M  V30 22 1 26 28
M  V30 23 1 26 29
M  V30 24 1 26 30
M  V30 25 1 31 32
M  V30 26 1 31 33
M  V30 27 1 31 34
M  V30 28 1 31 35
M  V30 29 1 36 37
M  V30 30 1 36 38
M  V30 31 1 36 39
M  V30 32 1 36 40
M  V30 33 1 41 42
M  V30 34 1 41 43
M  V30 35 1 41 44
M  V30 36 1 41 45
M  V30 37 1 46 47
M  V30 38 1 47 48
M  V30 39 1 49 50
M  V30 40 1 50 51
M  V30 41 1 52 53
M  V30 42 1 53 54
M  V30 43 1 55 56
M  V30 44 1 56 57
M  V30 45 1 58 59
M  V30 46 1 59 60
M  V30 47 1 61 62
M  V30 48 1 62 63
M  V30 49 1 64 65
M  V30 50 1 65 66
M  V30 51 1 67 68
M  V30 52 1 68 69
M  V30 53 1 70 71
M  V30 54 1 71 72
M  V30 55 1 73 74
M  V30 56 1 74 75
M  V30 57 1 76 77
M  V30 58 1 77 78
M  V30 59 1 79 80
M  V30 60 1 80 81
M  V30 61 1 82 83
M  V30 62 1 83 84
M  V30 63 1 85 86
M  V30 64 1 86 87
M  V30 65 1 88 89
M  V30 66 1 89 90
M  V30 67 1 91 92
M  V30 68 1 92 93
M  V30 69 1 94 95
M  V30 70 1 95 96
M  V30 71 1 97 98
M  V30 72 1 98 99
M  V30 73 1 2 73
M  V30 74 1 3 67
M  V30 75 1 4 88
M  V30 76 1 5 91
M  V30 77 1 7 46
M  V30 78 1 8 58
M  V30 79 1 9 85
M  V30 80 1 10 55
M  V30 81 1 12 82
M  V30 82 1 13 97
M  V30 83 1 14 64
M  V30 84 1 15 79
M  V30 85 1 17 66
M  V30 86 1 18 52
M  V30 87 1 19 76
M  V30 88 1 20 61
M  V30 89 1 22 48
M  V30 90 1 23 99
M  V30 91 1 24 78
M  V30 92 1 25 49
M  V30 93 1 27 54
M  V30 94 1 28 70
M  V30 95 1 29 90
M  V30 96 1 30 63
M  V30 97 1 32 75
M  V30 98 1 33 72
M  V30 99 1 34 81
M  V30 100 1 35 84
M  V30 101 1 37 51
M  V30 102 1 38 94
M  V30 103 1 39 87
M  V30 104 1 40 93
M  V30 105 1 42 60
M  V30 106 1 43 69
M  V30 107 1 44 96
M  V30 108 1 45 57
M  V30 END BOND
M  V30 END CTAB
M  END

$$$$
