
     RDKit          3D

  0  0  0  0  0  0  0  0  0  0999 V3000
M  V30 BEGIN CTAB
M  V30 COUNTS 99 108 0 0 0
M  V30 BEGIN ATOM
M  V30 1 Pd -2.9651 -3.6745 -0.3219 0
M  V30 2 Pb -3.5138 -3.2443 0.3987 0
M  V30 3 Pb -2.4667 -4.1332 -1.0623 0
M  V30 4 Pb -3.4857 -3.2098 -1.0381 0
M  V30 5 Pb -2.4602 -4.1392 0.4086 0
M  V30 6 Pd 5.8518 -2.5364 -2.0234 0
M  V30 7 Pb 5.8852 -1.5940 -1.6851 0
M  V30 8 Pb 5.8784 -3.4668 -2.3719 0
M  V30 9 Pb 6.4297 -2.8447 -1.2706 0
M  V30 10 Pb 5.1648 -2.3202 -2.7257 0
M  V30 11 Pd -0.6526 4.8401 3.0372 0
M  V30 12 Pb -1.1997 3.9807 3.1245 0
M  V30 13 Pb 0.1476 4.3826 3.4289 0
M  V30 14 Pb -0.1569 5.6983 2.9180 0
M  V30 15 Pb -1.4329 5.3239 2.6695 0
M  V30 16 Pd -0.3454 7.0127 -1.3722 0
M  V30 17 Pb -0.1254 7.4625 -0.5066 0
M  V30 18 Pb -0.5600 6.5091 -2.2065 0
M  V30 19 Pb 0.6105 6.7312 -1.4121 0
M  V30 20 Pb -1.3301 7.1845 -1.2918 0
M  V30 21 Pd 4.0391 1.7150 1.7725 0
M  V30 22 Pb 4.6278 1.3258 1.0591 0
M  V30 23 Pb 3.4931 2.1471 2.4939 0
M  V30 24 Pb 3.9672 2.5249 1.1904 0
M  V30 25 Pb 4.1089 0.9155 2.3729 0
M  V30 26 Pd -5.8647 2.7658 -3.0226 0
M  V30 27 Pb -5.0664 3.0417 -3.5540 0
M  V30 28 Pb -6.6259 2.4606 -2.4503 0
M  V30 29 Pb -5.7739 1.8187 -3.3212 0
M  V30 30 Pb -5.8639 3.6959 -2.6474 0
M  V30 31 Pd -5.3863 1.1977 1.6217 0
M  V30 32 Pb -5.2584 0.2228 1.8124 0
M  V30 33 Pb -6.2233 1.0305 1.1041 0
M  V30 34 Pb -5.5505 2.1555 1.4382 0
M  V30 35 Pb -4.5272 1.4204 2.1295 0
M  V30 36 Pd 3.3936 -5.7651 3.4862 0
M  V30 37 Pb 3.5147 -4.8806 3.9338 0
M  V30 38 Pb 3.2497 -6.5757 2.9219 0
M  V30 39 Pb 4.3634 -5.7187 3.2549 0
M  V30 40 Pb 2.4019 -5.7369 3.6011 0
M  V30 41 Pd 1.9325 -5.5522 -3.1953 0
M  V30 42 Pb 2.9029 -5.7564 -3.2616 0
M  V30 43 Pb 0.9433 -5.3965 -3.1628 0
M  V30 44 Pb 1.8374 -6.3783 -2.6438 0
M  V30 45 Pb 2.1145 -4.6672 -3.6378 0
M  V30 46 Ag 4.1177 0.3588 2.8793 0
M  V30 47 Fe 3.8833 -1.9089 3.5495 0
M  V30 48 Ag 3.6468 -4.1868 4.1836 0
M  V30 49 Ag 1.3092 6.4695 -1.3685 0
M  V30 50 Fe 2.6706 4.8142 -0.3488 0
M  V30 51 Ag 3.9298 3.1164 0.7308 0
M  V30 52 Ag -0.7948 6.1034 -2.7889 0
M  V30 53 Fe -2.5535 4.6740 -3.4881 0
M  V30 54 Ag -4.4435 3.2959 -3.8799 0
M  V30 55 Ag -2.0532 5.6047 2.3900 0
M  V30 56 Fe -4.0849 4.6452 1.7077 0
M  V30 57 Ag -5.5906 2.8828 1.3323 0
M  V30 58 Ag -2.0831 7.2044 -1.2752 0
M  V30 59 Fe -4.0114 5.9041 -1.7778 0
M  V30 60 Ag -5.7455 4.3863 -2.3703 0
M  V30 61 Ag 6.7539 -3.1714 -0.6815 0
M  V30 62 Fe 6.1244 -4.4074 1.2423 0
M  V30 63 Ag 5.0546 -5.5668 3.0133 0
M  V30 64 Ag -3.8565 -2.8749 -1.5975 0
M  V30 65 Fe -4.7879 -0.9248 -2.5790 0
M  V30 66 Ag -5.6823 1.0899 -3.4590 0
M  V30 67 Ag -2.1324 -4.4505 1.0104 0
M  V30 68 Fe -0.2510 -5.0901 2.3133 0
M  V30 69 Ag 1.6531 -5.7209 3.5875 0
M  V30 70 Ag 3.0656 -7.0972 2.4186 0
M  V30 71 Fe 2.4318 -7.2488 0.1381 0
M  V30 72 Ag 1.8655 -6.9328 -2.1432 0
M  V30 73 Ba 5.9819 -0.8870 -1.4488 0
M  V30 74 Ga 5.4754 0.0697 -0.4420 0
M  V30 75 Ba 5.0942 1.1476 0.4947 0
M  V30 76 Ba -3.9293 -2.9776 0.9667 0
M  V30 77 Ga -4.5352 -1.7130 1.4322 0
M  V30 78 Ba -5.1806 -0.5043 1.9852 0
M  V30 79 Ba 4.6108 -2.2326 -3.2340 0
M  V30 80 Ga 3.4544 -3.0900 -3.6014 0
M  V30 81 Ba 2.3201 -3.9952 -3.9190 0
M  V30 82 Ba 5.8889 -4.1632 -2.6328 0
M  V30 83 Ga 4.7957 -5.0725 -2.9852 0
M  V30 84 Ba 3.6311 -5.9005 -3.3079 0
M  V30 85 Ba -1.5756 3.3149 3.2277 0
M  V30 86 Ga -2.7659 2.5015 2.8131 0
M  V30 87 Ba -3.8833 1.5392 2.5377 0
M  V30 88 Ba 0.1298 6.3731 2.7671 0
M  V30 89 Ga 0.1447 7.1071 1.4888 0
M  V30 90 Ba 0.1007 7.7342 0.1552 0
M  V30 91 Ba -2.1913 -4.4583 -1.6837 0
M  V30 92 Ga -0.9438 -4.8697 -2.3615 0
M  V30 93 Ba 0.1939 -5.3407 -3.1795 0
M  V30 94 Ba -7.1528 2.1529 -2.0137 0
M  V30 95 Ga -7.0615 1.5623 -0.6660 0
M  V30 96 Ba -6.8415 1.0089 0.6826 0
M  V30 97 Ba 0.7369 4.0489 3.7546 0
M  V30 98 Ga 1.9175 3.2521 3.3616 0
M  V30 99 Ba 3.1257 2.4509 3.0762 0
M  V30 END ATOM
M  V30 BEGIN BOND
M  V30 1 1 1 2
M  V30 2 1 1 3
M  V30 3 1 1 4
M  V30 4 1 1 5
M  V30 5 1 6 7
M  V30 6 1 6 8
M  V30 7 1 6 9
M  V30 8 1 6 10
M  V30 9 1 11 12
M  V30 10 1 11 13
M  V30 11 1 11 14
M  V30 12 1 11 15
M  V30 13 1 16 17
M  V30 14 1 16 18
M  V30 15 1 16 19
M  V30 16 1 16 20
M  V30 17 1 21 22
M  V30 18 1 21 23
M  V30 19 1 21 24
M  V30 20 1 21 25
M  V30 21 1 26 27
M  V30 22 1 26 28
M  V30 23 1 26 29
M  V30 24 1 26 30
M  V30 25 1 31 32
M  V30 26 1 31 33
M  V30 27 1 31 34
M  V30 28 1 31 35
M  V30 29 1 36 37
M  V30 30 1 36 38
M  V30 31 1 36 39
M  V30 32 1 36 40
M  V30 33 1 41 42
M  V30 34 1 41 43
M  V30 35 1 41 44
M  V30 36 1 41 45
M  V30 37 1 46 47
M  V30 38 1 47 48
M  V30 39 1 49 50
M  V30 40 1 50 51
M  V30 41 1 52 53
M  V30 42 1 53 54
M  V30 43 1 55 56
M  V30 44 1 56 57
M  V30 45 1 58 59
M  V30 46 1 59 60
M  V30 47 1 61 62
M  V30 48 1 62 63
M  V30 49 1 64 65
M  V30 50 1 65 66
M  V30 51 1 67 68
M  V30 52 1 68 69
M  V30 53 1 70 71
M  V30 54 1 71 72
M  V30 55 1 73 74
M  V30 56 1 74 75
M  V30 57 1 76 77
M  V30 58 1 77 78
M  V30 59 1 79 80
M  V30 60 1 80 81
M  V30 61 1 82 83
M  V30 62 1 83 84
M  V30 63 1 85 86
M  V30 64 1 86 87
M  V30 65 1 88 89
M  V30 66 1 89 90
M  V30 67 1 91 92
M  V30 68 1 92 93
M  V30 69 1 94 95
M  V30 70 1 95 96
M  V30 71 1 97 98
M  V30 72 1 98 99
M  V30 73 1 2 76
M  V30 74 1 3 91
M  V30 75 1 4 64
M  V30 76 1 5 67
M  V30 77 1 7 73
M  V30 78 1 8 82
M  V30 79 1 9 61
M  V30 80 1 10 79
M  V30 81 1 12 85
M  V30 82 1 13 97
M  V30 83 1 14 88
M  V30 84 1 15 55
M  V30 85 1 17 90
M  V30 86 1 18 52
M  V30 87 1 19 49
M  V30 88 1 20 58
M  V30 89 1 22 75
M  V30 90 1 23 99
M  V30 91 1 24 51
M  V30 92 1 25 46
M  V30 93 1 27 54
M  V30 94 1 28 94
M  V30 95 1 29 66
M  V30 96 1 30 60
M  V30 97 1 32 78
M  V30 98 1 33 96
M  V30 99 1 34 57
M  V30 100 1 35 87
M  V30 101 1 37 48
M  V30 102 1 38 70
M  V30 103 1 39 63
M  V30 104 1 40 69
M  V30 105 1 42 84
M  V30 106 1 43 93
M  V30 107 1 44 72
M  V30 108 1 45 81
M  V30 END BOND
M  V30 END CTAB
M  END

$$$$
