
     RDKit          3D

  0  0  0  0  0  0  0  0  0  0999 V3000
M  V30 BEGIN CTAB
M  V30 COUNTS 99 108 0 0 0
M  V30 BEGIN ATOM
M  V30 1 Pd -2.0282 -2.3542 3.7479 0
M  V30 2 Pb -1.3648 -3.0993 3.8011 0
M  V30 3 Pb -2.6965 -1.6073 3.7130 0
M  V30 4 Pb -2.7388 -2.9906 3.4439 0
M  V30 5 Pb -1.2653 -1.7432 3.9619 0
M  V30 6 Pd -1.7655 7.5218 2.0943 0
M  V30 7 Pb -1.4754 7.1480 1.2163 0
M  V30 8 Pb -2.0647 7.8857 2.9742 0
M  V30 9 Pb -0.8014 7.6551 2.3365 0
M  V30 10 Pb -2.7300 7.3457 1.8744 0
M  V30 11 Pd 4.2989 -2.7010 -3.4031 0
M  V30 12 Pb 4.6695 -2.8493 -2.4828 0
M  V30 13 Pb 4.5456 -1.7282 -3.3383 0
M  V30 14 Pb 3.9145 -2.6160 -4.3254 0
M  V30 15 Pb 4.1637 -3.6856 -3.4912 0
M  V30 16 Pd -0.6810 -2.2789 -6.1316 0
M  V30 17 Pb 0.2807 -2.5379 -6.2553 0
M  V30 18 Pb -1.6214 -1.9717 -6.0444 0
M  V30 19 Pb -0.3837 -1.3343 -6.2313 0
M  V30 20 Pb -0.9977 -3.2326 -5.9603 0
M  V30 21 Pd 2.9988 2.8990 -2.1120 0
M  V30 22 Pb 2.2712 3.5593 -1.9323 0
M  V30 23 Pb 3.7233 2.2457 -2.3451 0
M  V30 24 Pb 2.5509 2.6928 -2.9784 0
M  V30 25 Pb 3.4661 3.1398 -1.2572 0
M  V30 26 Pd -3.7200 -5.8385 -2.4890 0
M  V30 27 Pb -4.3654 -5.1481 -2.7945 0
M  V30 28 Pb -3.0705 -6.5285 -2.1757 0
M  V30 29 Pb -4.1216 -5.8135 -1.5729 0
M  V30 30 Pb -3.2274 -5.7673 -3.3788 0
M  V30 31 Pd 3.1793 -6.4246 0.0408 0
M  V30 32 Pb 2.8400 -6.2697 0.9660 0
M  V30 33 Pb 2.4380 -7.0740 -0.1067 0
M  V30 34 Pb 3.4500 -6.5435 -0.9096 0
M  V30 35 Pb 3.8666 -5.7026 0.1375 0
M  V30 36 Pd 2.2530 4.1575 3.4784 0
M  V30 37 Pb 2.9240 4.0730 2.7368 0
M  V30 38 Pb 1.6166 4.2066 4.2460 0
M  V30 39 Pb 2.1891 5.1478 3.3313 0
M  V30 40 Pb 2.2608 3.1732 3.6435 0
M  V30 41 Pd -4.6708 4.9498 4.8868 0
M  V30 42 Pb -4.4339 5.8819 5.1524 0
M  V30 43 Pb -4.8479 4.0093 4.5926 0
M  V30 44 Pb -4.0374 4.6277 5.5812 0
M  V30 45 Pb -5.1223 5.3203 4.0774 0
M  V30 46 Ag -1.2417 6.8655 0.5649 0
M  V30 47 Fe 0.2473 5.4487 -0.6212 0
M  V30 48 Ag 1.7090 4.0490 -1.8605 0
M  V30 49 Ag -0.8350 -3.6267 3.8494 0
M  V30 50 Fe 0.8564 -4.9120 2.7915 0
M  V30 51 Ag 2.5193 -6.1432 1.6295 0
M  V30 52 Ag -0.1302 -0.6337 -6.2448 0
M  V30 53 Fe 1.0342 1.0093 -4.9950 0
M  V30 54 Ag 2.2114 2.5460 -3.6273 0
M  V30 55 Ag -2.3361 -1.8353 -5.9095 0
M  V30 56 Fe -3.9461 -2.9216 -4.5795 0
M  V30 57 Ag -4.7238 -4.5785 -3.1000 0
M  V30 58 Ag -3.2407 -3.4684 3.1535 0
M  V30 59 Fe -3.8912 -4.6522 1.1984 0
M  V30 60 Ag -4.3569 -5.7364 -0.8642 0
M  V30 61 Ag -0.6260 -1.3639 4.0699 0
M  V30 62 Fe 0.7758 0.5488 3.9390 0
M  V30 63 Ag 2.1946 2.4500 3.8244 0
M  V30 64 Ag 1.1368 4.1707 4.8196 0
M  V30 65 Fe -1.1098 4.2717 5.5688 0
M  V30 66 Ag -3.4356 4.4578 5.9831 0
M  V30 67 Ag -3.2331 -1.0800 3.6851 0
M  V30 68 Fe -4.0713 1.1173 4.0332 0
M  V30 69 Ag -4.9508 3.3012 4.3635 0
M  V30 70 Ag -2.5704 -7.0247 -1.9245 0
M  V30 71 Fe -0.3825 -7.3742 -1.0793 0
M  V30 72 Ag 1.8386 -7.4923 -0.2572 0
M  V30 73 Ba 3.8511 3.3338 -0.6395 0
M  V30 74 Ga 3.6017 3.6625 0.7812 0
M  V30 75 Ba 3.4616 4.0063 2.2131 0
M  V30 76 Ba 4.1134 -4.4284 -3.5644 0
M  V30 77 Ga 3.8661 -5.5327 -2.6262 0
M  V30 78 Ba 3.6098 -6.5884 -1.6360 0
M  V30 79 Ba -3.4602 7.1969 1.7541 0
M  V30 80 Ga -4.4517 6.4356 2.5438 0
M  V30 81 Ba -5.3282 5.6468 3.4355 0
M  V30 82 Ba -2.3441 8.1154 3.6286 0
M  V30 83 Ga -3.2726 7.4109 4.5257 0
M  V30 84 Ba -4.1954 6.5733 5.3066 0
M  V30 85 Ba 4.9412 -2.9964 -1.7960 0
M  V30 86 Ga 4.6675 -4.0529 -0.7982 0
M  V30 87 Ba 4.3548 -5.1315 0.1638 0
M  V30 88 Ba -1.2558 -3.9493 -5.8533 0
M  V30 89 Ga -2.0565 -4.7824 -4.8990 0
M  V30 90 Ba -2.8343 -5.7319 -4.0392 0
M  V30 91 Ba 3.6334 -2.6529 -5.0235 0
M  V30 92 Ga 2.3042 -2.6396 -5.6749 0
M  V30 93 Ba 1.0139 -2.6392 -6.4002 0
M  V30 94 Ba -0.0726 7.7358 2.5075 0
M  V30 95 Ga 1.0252 6.8124 2.8692 0
M  V30 96 Ba 2.1251 5.8916 3.2311 0
M  V30 97 Ba 4.8314 -1.0315 -3.2743 0
M  V30 98 Ga 4.4823 0.3584 -2.9035 0
M  V30 99 Ba 4.2778 1.7842 -2.5610 0
M  V30 END ATOM
M  V30 BEGIN BOND
M  V30 1 1 1 2
M  V30 2 1 1 3
M  V30 3 1 1 4
M  V30 4 1 1 5
M  V30 5 1 6 7
M  V30 6 1 6 8
M  V30 7 1 6 9
M  V30 8 1 6 10
M  V30 9 1 11 12
M  V30 10 1 11 13
M  V30 11 1 11 14
M  V30 12 1 11 15
M  V30 13 1 16 17
M  V30 14 1 16 18
M  V30 15 1 16 19
M  V30 16 1 16 20
M  V30 17 1 21 22
M  V30 18 1 21 23
M  V30 19 1 21 24
M  V30 20 1 21 25
M  V30 21 1 26 27
M  V30 22 1 26 28
M  V30 23 1 26 29
M  V30 24 1 26 30
M  V30 25 1 31 32
M  V30 26 1 31 33
M  V30 27 1 31 34
M  V30 28 1 31 35
M  V30 29 1 36 37
M  V30 30 1 36 38
M  V30 31 1 36 39
M  V30 32 1 36 40
M  V30 33 1 41 42
M  V30 34 1 41 43
M  V30 35 1 41 44
M  V30 36 1 41 45
M  V30 37 1 46 47
M  V30 38 1 47 48
M  V30 39 1 49 50
M  V30 40 1 50 51
M  V30 41 1 52 53
M  V30 42 1 53 54
M  V30 43 1 55 56
M  V30 44 1 56 57
M  V30 45 1 58 59
M  V30 46 1 59 60
M  V30 47 1 61 62
M  V30 48 1 62 63
M  V30 49 1 64 65
M  V30 50 1 65 66
M  V30 51 1 67 68
M  V30 52 1 68 69
M  V30 53 1 70 71
M  V30 54 1 71 72
M  V30 55 1 73 74
M  V30 56 1 74 75
M  V30 57 1 76 77
M  V30 58 1 77 78
M  V30 59 1 79 80
M  V30 60 1 80 81
M  V30 61 1 82 83
M  V30 62 1 83 84
M  V30 63 1 85 86
M  V30 64 1 86 87
M  V30 65 1 88 89
M  V30 66 1 89 90
M  V30 67 1 91 92
M  V30 68 1 92 93
M  V30 69 1 94 95
M  V30 70 1 95 96
M  V30 71 1 97 98
M  V30 72 1 98 99
M  V30 73 1 2 49
M  V30 74 1 3 67
M  V30 75 1 4 58
M  V30 76 1 5 61
M  V30 77 1 7 46
M  V30 78 1 8 82
M  V30 79 1 9 94
M  V30 80 1 10 79
M  V30 81 1 12 85
M  V30 82 1 13 97
M  V30 83 1 14 91
M  V30 84 1 15 76
M  V30 85 1 17 93
M  V30 86 1 18 55
M  V30 87 1 19 52
M  V30 88 1 20 88
M  V30 89 1 22 48
M  V30 90 1 23 99
M  V30 91 1 24 54
M  V30 92 1 25 73
M  V30 93 1 27 57
M  V30 94 1 28 70
M  V30 95 1 29 60
M  V30 96 1 30 90
M  V30 97 1 32 51
M  V30 98 1 33 72
M  V30 99 1 34 78
M  V30 100 1 35 87
M  V30 101 1 37 75
M  V30 102 1 38 64
M  V30 103 1 39 96
M  V30 104 1 40 63
M  V30 105 1 42 84
M  V30 106 1 43 69
M  V30 107 1 44 66
M  V30 108 1 45 81
M  V30 END BOND
M  V30 END CTAB
M  END

$$$$
