
     RDKit          3D

  0  0  0  0  0  0  0  0  0  0999 V3000
M  V30 BEGIN CTAB
M  V30 COUNTS 99 108 0 0 0
M  V30 BEGIN ATOM
M  V30 1 Pd -0.0138 1.4643 4.6912 0
M  V30 2 Pb 0.1161 0.5084 4.4180 0
M  V30 3 Pb 0.8814 1.4658 5.1423 0
M  V30 4 Pb -0.9378 1.4602 4.3155 0
M  V30 5 Pb -0.1460 2.4355 4.8926 0
M  V30 6 Pd 6.8850 2.4504 -1.1994 0
M  V30 7 Pb 6.1279 1.8184 -1.3591 0
M  V30 8 Pb 7.3672 1.7623 -0.6570 0
M  V30 9 Pb 6.3320 3.1996 -1.5585 0
M  V30 10 Pb 7.5810 3.1014 -0.9047 0
M  V30 11 Pd -1.1915 -6.6232 -4.1529 0
M  V30 12 Pb -1.8565 -7.3169 -3.8990 0
M  V30 13 Pb -0.5779 -5.8826 -4.4220 0
M  V30 14 Pb -1.7051 -6.4240 -4.9827 0
M  V30 15 Pb -0.7810 -6.6860 -3.2251 0
M  V30 16 Pd -5.3928 -0.9976 -4.6718 0
M  V30 17 Pb -5.1049 -1.7245 -5.2946 0
M  V30 18 Pb -5.6843 -0.2830 -4.0406 0
M  V30 19 Pb -4.8156 -0.3349 -5.1499 0
M  V30 20 Pb -5.9178 -1.6629 -4.1359 0
M  V30 21 Pd -0.3303 0.8770 -3.7871 0
M  V30 22 Pb 0.4606 0.6987 -3.2029 0
M  V30 23 Pb -0.0418 0.0704 -4.3003 0
M  V30 24 Pb -1.0920 1.0424 -4.4191 0
M  V30 25 Pb -0.6182 1.6483 -3.2145 0
M  V30 26 Pd -6.0054 -1.3014 0.4861 0
M  V30 27 Pb -6.1564 -0.5482 -0.1518 0
M  V30 28 Pb -5.8501 -2.0347 1.1522 0
M  V30 29 Pb -5.6446 -0.6476 1.1458 0
M  V30 30 Pb -6.3473 -1.9358 -0.2099 0
M  V30 31 Pd -2.4022 -5.3216 1.3920 0
M  V30 32 Pb -1.7476 -4.6704 1.7847 0
M  V30 33 Pb -3.1481 -4.9297 1.9306 0
M  V30 34 Pb -1.6877 -5.7030 0.7731 0
M  V30 35 Pb -3.0322 -6.0175 1.0660 0
M  V30 36 Pd 1.2646 5.8340 1.9223 0
M  V30 37 Pb 0.5595 5.4862 1.3013 0
M  V30 38 Pb 1.9788 6.1611 2.5436 0
M  V30 39 Pb 1.8588 5.9414 1.1236 0
M  V30 40 Pb 0.6930 5.6819 2.7306 0
M  V30 41 Pd 7.3651 3.5749 5.2519 0
M  V30 42 Pb 7.7825 2.7287 4.9212 0
M  V30 43 Pb 6.6635 3.0638 5.7472 0
M  V30 44 Pb 6.8467 4.4151 5.3962 0
M  V30 45 Pb 7.9888 4.0631 4.6450 0
M  V30 46 Ag 5.5289 1.3700 -1.4024 0
M  V30 47 Fe 3.3049 0.9551 -2.1239 0
M  V30 48 Ag 1.0817 0.5087 -2.8284 0
M  V30 49 Ag 0.2277 -0.1964 4.1784 0
M  V30 50 Fe -0.5462 -2.1921 3.1413 0
M  V30 51 Ag -1.2393 -4.2225 2.1145 0
M  V30 52 Ag -0.8437 2.2048 -2.7603 0
M  V30 53 Fe -0.4055 3.7203 -0.9811 0
M  V30 54 Ag 0.0639 5.2241 0.8000 0
M  V30 55 Ag 8.0475 3.5557 -0.5395 0
M  V30 56 Fe 8.4379 4.1468 1.7221 0
M  V30 57 Ag 8.3845 4.3540 4.0823 0
M  V30 58 Ag 7.6912 1.3513 -0.1198 0
M  V30 59 Fe 8.0041 1.5121 2.2288 0
M  V30 60 Ag 8.0370 2.1517 4.5156 0
M  V30 61 Ag -2.3779 -7.7278 -3.5741 0
M  V30 62 Fe -3.2686 -7.5258 -1.4054 0
M  V30 63 Ag -3.4160 -6.5571 0.7348 0
M  V30 64 Ag -2.1319 -6.1375 -5.5229 0
M  V30 65 Fe -3.5511 -4.2587 -5.8060 0
M  V30 66 Ag -4.8786 -2.2946 -5.7252 0
M  V30 67 Ag 5.8753 3.7768 -1.6943 0
M  V30 68 Fe 4.0743 4.9590 -0.6951 0
M  V30 69 Ag 2.2931 5.9658 0.5110 0
M  V30 70 Ag -1.6484 1.4837 4.0846 0
M  V30 71 Fe -3.4925 0.6538 2.8456 0
M  V30 72 Ag -5.3578 -0.1470 1.6192 0
M  V30 73 Ag 2.4977 6.3726 3.0444 0
M  V30 74 Fe 4.4483 5.8015 4.2734 0
M  V30 75 Ag 6.3963 5.0123 5.3792 0
M  V30 76 Ag 1.5324 1.4557 5.5197 0
M  V30 77 Fe 3.8127 2.0606 5.8063 0
M  V30 78 Ag 6.0916 2.6877 6.0529 0
M  V30 79 Ag -0.1902 -5.2937 -4.6745 0
M  V30 80 Fe 0.0601 -2.9330 -4.6819 0
M  V30 81 Ag 0.2124 -0.5653 -4.6043 0
M  V30 82 Ba -4.3657 0.1700 -5.4759 0
M  V30 83 Ga -3.0030 0.6658 -5.1908 0
M  V30 84 Ba -1.6415 1.1721 -4.9181 0
M  V30 85 Ba -5.9067 0.2281 -3.5434 0
M  V30 86 Ga -6.0940 0.1547 -2.0858 0
M  V30 87 Ba -6.2618 0.0175 -0.6304 0
M  V30 88 Ba -0.4905 -6.7106 -2.5155 0
M  V30 89 Ga -0.8722 -6.3362 -1.1164 0
M  V30 90 Ba -1.1455 -6.0036 0.3180 0
M  V30 91 Ba -6.2851 -2.1563 -3.7018 0
M  V30 92 Ga -6.4569 -2.2865 -2.2389 0
M  V30 93 Ba -6.5985 -2.3711 -0.7694 0
M  V30 94 Ba -0.2820 3.1675 4.9906 0
M  V30 95 Ga 0.0104 4.3726 4.1882 0
M  V30 96 Ba 0.3139 5.5636 3.3690 0
M  V30 97 Ba -5.7267 -2.5438 1.6931 0
M  V30 98 Ga -4.7304 -3.5947 1.9859 0
M  V30 99 Ba -3.7429 -4.6499 2.2925 0
M  V30 END ATOM
M  V30 BEGIN BOND
M  V30 1 1 1 2
M  V30 2 1 1 3
M  V30 3 1 1 4
M  V30 4 1 1 5
M  V30 5 1 6 7
M  V30 6 1 6 8
M  V30 7 1 6 9
M  V30 8 1 6 10
M  V30 9 1 11 12
M  V30 10 1 11 13
M  V30 11 1 11 14
M  V30 12 1 11 15
M  V30 13 1 16 17
M  V30 14 1 16 18
M  V30 15 1 16 19
M  V30 16 1 16 20
M  V30 17 1 21 22
M  V30 18 1 21 23
M  V30 19 1 21 24
M  V30 20 1 21 25
M  V30 21 1 26 27
M  V30 22 1 26 28
M  V30 23 1 26 29
M  V30 24 1 26 30
M  V30 25 1 31 32
M  V30 26 1 31 33
M  V30 27 1 31 34
M  V30 28 1 31 35
M  V30 29 1 36 37
M  V30 30 1 36 38
M  V30 31 1 36 39
M  V30 32 1 36 40
M  V30 33 1 41 42
M  V30 34 1 41 43
M  V30 35 1 41 44
M  V30 36 1 41 45
M  V30 37 1 46 47
M  V30 38 1 47 48
M  V30 39 1 49 50
M  V30 40 1 50 51
M  V30 41 1 52 53
M  V30 42 1 53 54
M  V30 43 1 55 56
M  V30 44 1 56 57
M  V30 45 1 58 59
M  V30 46 1 59 60
M  V30 47 1 61 62
M  V30 48 1 62 63
M  V30 49 1 64 65
M  V30 50 1 65 66
M  V30 51 1 67 68
M  V30 52 1 68 69
M  V30 53 1 70 71
M  V30 54 1 71 72
M  V30 55 1 73 74
M  V30 56 1 74 75
M  V30 57 1 76 77
M  V30 58 1 77 78
M  V30 59 1 79 80
M  V30 60 1 80 81
M  V30 61 1 82 83
M  V30 62 1 83 84
M  V30 63 1 85 86
M  V30 64 1 86 87
M  V30 65 1 88 89
M  V30 66 1 89 90
M  V30 67 1 91 92
M  V30 68 1 92 93
M  V30 69 1 94 95
M  V30 70 1 95 96
M  V30 71 1 97 98
M  V30 72 1 98 99
M  V30 73 1 2 49
M  V30 74 1 3 76
M  V30 75 1 4 70
M  V30 76 1 5 94
M  V30 77 1 7 46
M  V30 78 1 8 58
M  V30 79 1 9 67
M  V30 80 1 10 55
M  V30 81 1 12 61
M  V30 82 1 13 79
M  V30 83 1 14 64
M  V30 84 1 15 88
M  V30 85 1 17 66
M  V30 86 1 18 85
M  V30 87 1 19 82
M  V30 88 1 20 91
M  V30 89 1 22 48
M  V30 90 1 23 81
M  V30 91 1 24 84
M  V30 92 1 25 52
M  V30 93 1 27 87
M  V30 94 1 28 97
M  V30 95 1 29 72
M  V30 96 1 30 93
M  V30 97 1 32 51
M  V30 98 1 33 99
M  V30 99 1 34 90
M  V30 100 1 35 63
M  V30 101 1 37 54
M  V30 102 1 38 73
M  V30 103 1 39 69
M  V30 104 1 40 96
M  V30 105 1 42 60
M  V30 106 1 43 78
M  V30 107 1 44 75
M  V30 108 1 45 57
M  V30 END BOND
M  V30 END CTAB
M  END

$$$$
