
     RDKit          3D

  0  0  0  0  0  0  0  0  0  0999 V3000
M  V30 BEGIN CTAB
M  V30 COUNTS 99 108 0 0 0
M  V30 BEGIN ATOM
M  V30 1 Pd 4.2575 -5.7286 2.9782 0
M  V30 2 Pb 4.1059 -6.2475 3.8182 0
M  V30 3 Pb 4.2319 -6.5957 2.4725 0
M  V30 4 Pb 4.4548 -5.2505 2.1210 0
M  V30 5 Pb 4.2318 -4.8714 3.5025 0
M  V30 6 Pd 2.5840 -1.7861 -3.6404 0
M  V30 7 Pb 2.0377 -2.5905 -3.8718 0
M  V30 8 Pb 1.9375 -1.2512 -4.1839 0
M  V30 9 Pb 3.0974 -0.9673 -3.3841 0
M  V30 10 Pb 3.2031 -2.3167 -3.0610 0
M  V30 11 Pd 0.5190 8.9683 -0.7022 0
M  V30 12 Pb -0.3729 9.2396 -0.3367 0
M  V30 13 Pb 0.8588 8.7529 0.2124 0
M  V30 14 Pb 1.3934 8.6675 -1.0807 0
M  V30 15 Pb 0.1613 9.1044 -1.6229 0
M  V30 16 Pd -3.9654 7.2362 -2.2306 0
M  V30 17 Pb -4.0074 6.4815 -2.9074 0
M  V30 18 Pb -4.6883 6.7998 -1.7067 0
M  V30 19 Pb -3.2650 7.6954 -2.7760 0
M  V30 20 Pb -3.8506 7.9404 -1.5299 0
M  V30 21 Pd 0.7274 -8.9390 3.4255 0
M  V30 22 Pb 0.0899 -8.4908 4.0398 0
M  V30 23 Pb 0.0511 -8.8703 2.6940 0
M  V30 24 Pb 1.4476 -9.2067 2.7884 0
M  V30 25 Pb 1.4098 -8.8962 4.1503 0
M  V30 26 Pd 0.5464 -1.7946 4.3505 0
M  V30 27 Pb 0.1952 -2.6748 4.6604 0
M  V30 28 Pb 0.8756 -0.8766 4.1250 0
M  V30 29 Pb -0.3886 -1.6069 4.0437 0
M  V30 30 Pb 1.4905 -2.0432 4.5885 0
M  V30 31 Pd 3.2298 4.7942 0.5651 0
M  V30 32 Pb 3.5717 4.0743 -0.0402 0
M  V30 33 Pb 2.8976 5.5344 1.1519 0
M  V30 34 Pb 2.9945 4.1373 1.2823 0
M  V30 35 Pb 3.4473 5.4721 -0.1357 0
M  V30 36 Pd -3.5234 -4.1612 -1.1771 0
M  V30 37 Pb -3.1023 -4.5208 -2.0058 0
M  V30 38 Pb -3.9925 -3.4549 -1.7117 0
M  V30 39 Pb -3.7644 -3.6998 -0.3221 0
M  V30 40 Pb -3.1544 -4.9610 -0.6993 0
M  V30 41 Pd -4.3841 1.3207 -3.5622 0
M  V30 42 Pb -4.6029 0.3547 -3.4125 0
M  V30 43 Pb -3.5921 1.0852 -4.1259 0
M  V30 44 Pb -4.2334 2.3027 -3.7785 0
M  V30 45 Pb -5.1345 1.5757 -2.9628 0
M  V30 46 Ag -0.4679 -8.7531 2.1669 0
M  V30 47 Fe -1.6743 -7.1563 0.8857 0
M  V30 48 Ag -2.9271 -5.6274 -0.4333 0
M  V30 49 Ag -0.2911 -8.0140 4.4617 0
M  V30 50 Fe -0.3175 -5.6683 4.7863 0
M  V30 51 Ag -0.1179 -3.3104 4.8986 0
M  V30 52 Ag 1.5555 -3.1400 -4.0363 0
M  V30 53 Fe -0.5456 -4.0700 -3.4448 0
M  V30 54 Ag -2.6506 -4.7207 -2.5658 0
M  V30 55 Ag 1.1578 -0.1857 4.0404 0
M  V30 56 Fe 1.9630 1.7056 2.8489 0
M  V30 57 Ag 2.8032 3.6946 1.8575 0
M  V30 58 Ag -5.2101 6.3700 -1.4038 0
M  V30 59 Fe -5.7741 4.0971 -1.6729 0
M  V30 60 Ag -5.6145 1.8951 -2.4984 0
M  V30 61 Ag 4.6352 -4.9494 1.4567 0
M  V30 62 Fe 4.1218 -3.8082 -0.5630 0
M  V30 63 Ag 3.6785 -2.6724 -2.6023 0
M  V30 64 Ag 1.4102 -0.8889 -4.5748 0
M  V30 65 Fe -0.7761 0.0389 -4.5922 0
M  V30 66 Ag -2.9719 0.9415 -4.5229 0
M  V30 67 Ag -1.0967 -1.5802 3.7911 0
M  V30 68 Fe -2.5689 -2.3756 2.1020 0
M  V30 69 Ag -3.8286 -3.2917 0.3057 0
M  V30 70 Ag 3.4887 -0.3684 -3.1591 0
M  V30 71 Fe 3.6479 1.5980 -1.8360 0
M  V30 72 Ag 3.8431 3.5697 -0.5256 0
M  V30 73 Ba -3.9995 5.9368 -3.4432 0
M  V30 74 Ga -4.0860 4.4591 -3.6369 0
M  V30 75 Ba -4.1488 3.0208 -4.0312 0
M  V30 76 Ba 4.1742 -7.2575 2.1158 0
M  V30 77 Ga 3.1459 -8.3169 2.1771 0
M  V30 78 Ba 2.0433 -9.2864 2.3418 0
M  V30 79 Ba -0.1480 9.1525 -2.3011 0
M  V30 80 Ga -1.4360 8.6271 -2.7827 0
M  V30 81 Ba -2.7412 8.0637 -3.1653 0
M  V30 82 Ba 1.1262 8.5339 0.8773 0
M  V30 83 Ga 1.8899 7.3315 1.2618 0
M  V30 84 Ba 2.6511 6.1062 1.5724 0
M  V30 85 Ba 2.0429 8.4108 -1.3515 0
M  V30 86 Ga 2.8424 7.2166 -1.0263 0
M  V30 87 Ba 3.5859 6.0029 -0.6455 0
M  V30 88 Ba 4.2049 -4.2497 3.9305 0
M  V30 89 Ga 3.1915 -3.2404 4.3184 0
M  V30 90 Ba 2.2126 -2.2085 4.7346 0
M  V30 91 Ba 3.9906 -6.6891 4.4118 0
M  V30 92 Ga 2.9921 -7.7491 4.6184 0
M  V30 93 Ba 1.9317 -8.7668 4.6676 0
M  V30 94 Ba -4.4145 -3.0110 -2.1486 0
M  V30 95 Ga -4.5424 -1.6458 -2.6982 0
M  V30 96 Ba -4.8468 -0.3529 -3.3446 0
M  V30 97 Ba -1.0616 9.4251 -0.1004 0
M  V30 98 Ga -2.4016 8.9692 -0.5197 0
M  V30 99 Ba -3.6970 8.4532 -1.0043 0
M  V30 END ATOM
M  V30 BEGIN BOND
M  V30 1 1 1 2
M  V30 2 1 1 3
M  V30 3 1 1 4
M  V30 4 1 1 5
M  V30 5 1 6 7
M  V30 6 1 6 8
M  V30 7 1 6 9
M  V30 8 1 6 10
M  V30 9 1 11 12
M  V30 10 1 11 13
M  V30 11 1 11 14
M  V30 12 1 11 15
M  V30 13 1 16 17
M  V30 14 1 16 18
M  V30 15 1 16 19
M  V30 16 1 16 20
M  V30 17 1 21 22
M  V30 18 1 21 23
M  V30 19 1 21 24
M  V30 20 1 21 25
M  V30 21 1 26 27
M  V30 22 1 26 28
M  V30 23 1 26 29
M  V30 24 1 26 30
M  V30 25 1 31 32
M  V30 26 1 31 33
M  V30 27 1 31 34
M  V30 28 1 31 35
M  V30 29 1 36 37
M  V30 30 1 36 38
M  V30 31 1 36 39
M  V30 32 1 36 40
M  V30 33 1 41 42
M  V30 34 1 41 43
M  V30 35 1 41 44
M  V30 36 1 41 45
M  V30 37 1 46 47
M  V30 38 1 47 48
M  V30 39 1 49 50
M  V30 40 1 50 51
M  V30 41 1 52 53
M  V30 42 1 53 54
M  V30 43 1 55 56
M  V30 44 1 56 57
M  V30 45 1 58 59
M  V30 46 1 59 60
M  V30 47 1 61 62
M  V30 48 1 62 63
M  V30 49 1 64 65
M  V30 50 1 65 66
M  V30 51 1 67 68
M  V30 52 1 68 69
M  V30 53 1 70 71
M  V30 54 1 71 72
M  V30 55 1 73 74
M  V30 56 1 74 75
M  V30 57 1 76 77
M  V30 58 1 77 78
M  V30 59 1 79 80
M  V30 60 1 80 81
M  V30 61 1 82 83
M  V30 62 1 83 84
M  V30 63 1 85 86
M  V30 64 1 86 87
M  V30 65 1 88 89
M  V30 66 1 89 90
M  V30 67 1 91 92
M  V30 68 1 92 93
M  V30 69 1 94 95
M  V30 70 1 95 96
M  V30 71 1 97 98
M  V30 72 1 98 99
M  V30 73 1 2 91
M  V30 74 1 3 76
M  V30 75 1 4 61
M  V30 76 1 5 88
M  V30 77 1 7 52
M  V30 78 1 8 64
M  V30 79 1 9 70
M  V30 80 1 10 63
M  V30 81 1 12 97
M  V30 82 1 13 82
M  V30 83 1 14 85
M  V30 84 1 15 79
M  V30 85 1 17 73
M  V30 86 1 18 58
M  V30 87 1 19 81
M  V30 88 1 20 99
M  V30 89 1 22 49
M  V30 90 1 23 46
M  V30 91 1 24 78
M  V30 92 1 25 93
M  V30 93 1 27 51
M  V30 94 1 28 55
M  V30 95 1 29 67
M  V30 96 1 30 90
M  V30 97 1 32 72
M  V30 98 1 33 84
M  V30 99 1 34 57
M  V30 100 1 35 87
M  V30 101 1 37 54
M  V30 102 1 38 94
M  V30 103 1 39 69
M  V30 104 1 40 48
M  V30 105 1 42 96
M  V30 106 1 43 66
M  V30 107 1 44 75
M  V30 108 1 45 60
M  V30 END BOND
M  V30 END CTAB
M  END

$$$$
