
     RDKit          3D

  0  0  0  0  0  0  0  0  0  0999 V3000
M  V30 BEGIN CTAB
M  V30 COUNTS 99 108 0 0 0
M  V30 BEGIN ATOM
M  V30 1 Pd -4.0807 -2.3487 1.2326 0
M  V30 2 Pb -3.4941 -3.0217 0.7841 0
M  V30 3 Pb -4.7772 -1.7754 1.6765 0
M  V30 4 Pb -4.5438 -2.2169 0.3581 0
M  V30 5 Pb -3.5011 -2.4470 2.0444 0
M  V30 6 Pd -1.4738 5.5458 5.4045 0
M  V30 7 Pb -0.6323 5.7704 4.9241 0
M  V30 8 Pb -2.3378 5.2688 5.8481 0
M  V30 9 Pb -0.9077 5.1351 6.1252 0
M  V30 10 Pb -2.0230 5.9291 4.6658 0
M  V30 11 Pd 5.5815 -3.6121 -3.4272 0
M  V30 12 Pb 5.2227 -4.0352 -4.2607 0
M  V30 13 Pb 5.8662 -3.1574 -2.5828 0
M  V30 14 Pb 5.8785 -2.8236 -3.9598 0
M  V30 15 Pb 5.2122 -4.3748 -2.9019 0
M  V30 16 Pd 2.0342 2.1619 -5.7566 0
M  V30 17 Pb 2.9759 1.8621 -5.8871 0
M  V30 18 Pb 1.0746 2.3964 -5.5926 0
M  V30 19 Pb 2.3446 2.6925 -4.9682 0
M  V30 20 Pb 1.7433 1.5780 -6.5120 0
M  V30 21 Pd 4.1970 2.0807 1.7334 0
M  V30 22 Pb 3.7806 2.9157 2.0836 0
M  V30 23 Pb 4.6755 1.2733 1.3816 0
M  V30 24 Pb 4.1248 2.4835 0.8194 0
M  V30 25 Pb 4.2331 1.7002 2.6616 0
M  V30 26 Pd -2.0016 -1.0697 -5.9018 0
M  V30 27 Pb -1.9921 -0.0860 -5.7081 0
M  V30 28 Pb -1.9715 -2.0551 -6.0792 0
M  V30 29 Pb -2.7526 -1.2047 -5.2533 0
M  V30 30 Pb -1.2786 -0.9222 -6.5753 0
M  V30 31 Pd 0.8942 -5.4827 -4.0780 0
M  V30 32 Pb 0.2252 -5.5276 -3.3386 0
M  V30 33 Pb 0.1760 -5.2464 -4.7378 0
M  V30 34 Pb 1.6028 -5.7484 -3.4240 0
M  V30 35 Pb 1.6002 -5.4232 -4.7848 0
M  V30 36 Pd 0.8456 0.7008 6.2205 0
M  V30 37 Pb 1.7839 0.7461 5.8606 0
M  V30 38 Pb -0.0662 0.5950 6.6074 0
M  V30 39 Pb 0.9392 1.5897 6.6750 0
M  V30 40 Pb 0.6477 -0.1680 5.7676 0
M  V30 41 Pd -6.0046 2.0868 4.5941 0
M  V30 42 Pb -5.6436 2.8239 5.1853 0
M  V30 43 Pb -6.3016 1.3358 4.0039 0
M  V30 44 Pb -5.6853 1.4526 5.2886 0
M  V30 45 Pb -6.2122 2.7675 3.8972 0
M  V30 46 Ag 0.0107 5.8711 4.5625 0
M  V30 47 Fe 1.7756 4.7648 3.4323 0
M  V30 48 Ag 3.4884 3.5601 2.3225 0
M  V30 49 Ag -3.1201 -3.5821 0.4560 0
M  V30 50 Fe -1.6707 -4.5233 -1.1712 0
M  V30 51 Ag -0.2368 -5.5639 -2.7510 0
M  V30 52 Ag 2.6279 3.0475 -4.3715 0
M  V30 53 Fe 3.3253 2.9368 -2.1028 0
M  V30 54 Ag 4.0293 2.8398 0.1645 0
M  V30 55 Ag -2.5232 6.0965 4.1407 0
M  V30 56 Fe -4.5082 5.0314 3.4344 0
M  V30 57 Ag -6.1764 3.3621 3.4549 0
M  V30 58 Ag 6.0184 -2.2113 -4.3630 0
M  V30 59 Fe 4.9834 -0.2598 -5.2221 0
M  V30 60 Ag 3.6652 1.5787 -5.9289 0
M  V30 61 Ag -4.8015 -2.1082 -0.3362 0
M  V30 62 Fe -4.1274 -1.7052 -2.5776 0
M  V30 63 Ag -3.3248 -1.3049 -4.7768 0
M  V30 64 Ag -2.9608 -2.5502 2.5590 0
M  V30 65 Fe -1.2878 -1.7054 4.0223 0
M  V30 66 Ag 0.3606 -0.7972 5.4753 0
M  V30 67 Ag -0.7558 0.4462 6.8509 0
M  V30 68 Fe -3.0821 0.6612 6.4627 0
M  V30 69 Ag -5.3214 1.0694 5.8107 0
M  V30 70 Ag 6.0407 -2.8020 -1.9452 0
M  V30 71 Fe 5.5490 -1.0576 -0.4077 0
M  V30 72 Ag 5.0718 0.6806 1.1415 0
M  V30 73 Ba 4.2722 1.4220 3.3610 0
M  V30 74 Ga 3.3466 1.1014 4.4720 0
M  V30 75 Ba 2.5067 0.7488 5.6398 0
M  V30 76 Ba 0.3416 2.5167 -5.4789 0
M  V30 77 Ga -0.8239 1.6084 -5.5158 0
M  V30 78 Ba -1.9500 0.6522 -5.5671 0
M  V30 79 Ba 4.8738 -4.9322 -2.5377 0
M  V30 80 Ga 3.5145 -5.4734 -2.7060 0
M  V30 81 Ba 2.1415 -5.9511 -2.9428 0
M  V30 82 Ba -3.0078 5.0864 6.1574 0
M  V30 83 Ga -4.1678 4.1988 5.8691 0
M  V30 84 Ba -5.3726 3.3481 5.6665 0
M  V30 85 Ba 4.9054 -4.3401 -4.8695 0
M  V30 86 Ga 3.5475 -4.8671 -5.1120 0
M  V30 87 Ba 2.1701 -5.3748 -5.2711 0
M  V30 88 Ba 1.5142 1.1082 -7.0472 0
M  V30 89 Ga 0.3937 0.1537 -7.0981 0
M  V30 90 Ba -0.7455 -0.7795 -7.0817 0
M  V30 91 Ba -0.4359 4.8418 6.6357 0
M  V30 92 Ga 0.2539 3.5465 6.8296 0
M  V30 93 Ba 0.9467 2.2537 7.0302 0
M  V30 94 Ba -5.3927 -1.4223 1.9369 0
M  V30 95 Ga -5.8858 -0.3050 2.7708 0
M  V30 96 Ba -6.5223 0.7660 3.5685 0
M  V30 97 Ba -1.9389 -2.7938 -6.2144 0
M  V30 98 Ga -1.1424 -3.9324 -5.7094 0
M  V30 99 Ba -0.3707 -5.1010 -5.2354 0
M  V30 END ATOM
M  V30 BEGIN BOND
M  V30 1 1 1 2
M  V30 2 1 1 3
M  V30 3 1 1 4
M  V30 4 1 1 5
M  V30 5 1 6 7
M  V30 6 1 6 8
M  V30 7 1 6 9
M  V30 8 1 6 10
M  V30 9 1 11 12
M  V30 10 1 11 13
M  V30 11 1 11 14
M  V30 12 1 11 15
M  V30 13 1 16 17
M  V30 14 1 16 18
M  V30 15 1 16 19
M  V30 16 1 16 20
M  V30 17 1 21 22
M  V30 18 1 21 23
M  V30 19 1 21 24
M  V30 20 1 21 25
M  V30 21 1 26 27
M  V30 22 1 26 28
M  V30 23 1 26 29
M  V30 24 1 26 30
M  V30 25 1 31 32
M  V30 26 1 31 33
M  V30 27 1 31 34
M  V30 28 1 31 35
M  V30 29 1 36 37
M  V30 30 1 36 38
M  V30 31 1 36 39
M  V30 32 1 36 40
M  V30 33 1 41 42
M  V30 34 1 41 43
M  V30 35 1 41 44
M  V30 36 1 41 45
M  V30 37 1 46 47
M  V30 38 1 47 48
M  V30 39 1 49 50
M  V30 40 1 50 51
M  V30 41 1 52 53
M  V30 42 1 53 54
M  V30 43 1 55 56
M  V30 44 1 56 57
M  V30 45 1 58 59
M  V30 46 1 59 60
M  V30 47 1 61 62
M  V30 48 1 62 63
M  V30 49 1 64 65
M  V30 50 1 65 66
M  V30 51 1 67 68
M  V30 52 1 68 69
M  V30 53 1 70 71
M  V30 54 1 71 72
M  V30 55 1 73 74
M  V30 56 1 74 75
M  V30 57 1 76 77
M  V30 58 1 77 78
M  V30 59 1 79 80
M  V30 60 1 80 81
M  V30 61 1 82 83
M  V30 62 1 83 84
M  V30 63 1 85 86
M  V30 64 1 86 87
M  V30 65 1 88 89
M  V30 66 1 89 90
M  V30 67 1 91 92
M  V30 68 1 92 93
M  V30 69 1 94 95
M  V30 70 1 95 96
M  V30 71 1 97 98
M  V30 72 1 98 99
M  V30 73 1 2 49
M  V30 74 1 3 94
M  V30 75 1 4 61
M  V30 76 1 5 64
M  V30 77 1 7 46
M  V30 78 1 8 82
M  V30 79 1 9 91
M  V30 80 1 10 55
M  V30 81 1 12 85
M  V30 82 1 13 70
M  V30 83 1 14 58
M  V30 84 1 15 79
M  V30 85 1 17 60
M  V30 86 1 18 76
M  V30 87 1 19 52
M  V30 88 1 20 88
M  V30 89 1 22 48
M  V30 90 1 23 72
M  V30 91 1 24 54
M  V30 92 1 25 73
M  V30 93 1 27 78
M  V30 94 1 28 97
M  V30 95 1 29 63
M  V30 96 1 30 90
M  V30 97 1 32 51
M  V30 98 1 33 99
M  V30 99 1 34 81
M  V30 100 1 35 87
M  V30 101 1 37 75
M  V30 102 1 38 67
M  V30 103 1 39 93
M  V30 104 1 40 66
M  V30 105 1 42 84
M  V30 106 1 43 96
M  V30 107 1 44 69
M  V30 108 1 45 57
M  V30 END BOND
M  V30 END CTAB
M  END

$$$$
