
     RDKit          3D

  0  0  0  0  0  0  0  0  0  0999 V3000
M  V30 BEGIN CTAB
M  V30 COUNTS 99 108 0 0 0
M  V30 BEGIN ATOM
M  V30 1 Pd -4.6241 2.6630 -1.5529 0
M  V30 2 Pb -5.2840 1.9245 -1.4327 0
M  V30 3 Pb -3.9323 3.3805 -1.6097 0
M  V30 4 Pb -5.3194 3.3580 -1.7423 0
M  V30 5 Pb -3.9536 1.9860 -1.2459 0
M  V30 6 Pd -4.8950 6.2506 1.4469 0
M  V30 7 Pb -5.6608 6.1806 2.0779 0
M  V30 8 Pb -5.5190 6.2839 0.6653 0
M  V30 9 Pb -4.1319 6.2571 0.8043 0
M  V30 10 Pb -4.2593 6.0636 2.2148 0
M  V30 11 Pd 4.7961 -0.8341 1.7139 0
M  V30 12 Pb 4.6927 -1.8206 1.7993 0
M  V30 13 Pb 4.7827 0.1597 1.5950 0
M  V30 14 Pb 5.6350 -0.9485 1.1790 0
M  V30 15 Pb 3.9991 -0.7733 2.3044 0
M  V30 16 Pd 6.7849 -3.6583 -2.7717 0
M  V30 17 Pb 6.9501 -2.8721 -3.3674 0
M  V30 18 Pb 6.4033 -4.4142 -2.2394 0
M  V30 19 Pb 6.4823 -4.1552 -3.5785 0
M  V30 20 Pb 7.0793 -3.1216 -1.9780 0
M  V30 21 Pd -2.6372 -2.3160 2.3683 0
M  V30 22 Pb -2.1381 -2.2598 1.4988 0
M  V30 23 Pb -3.1103 -2.2702 3.2460 0
M  V30 24 Pb -1.7880 -2.1466 2.8560 0
M  V30 25 Pb -3.5045 -2.3454 1.8720 0
M  V30 26 Pd -3.2097 1.9977 5.0532 0
M  V30 27 Pb -4.1381 2.2629 5.2935 0
M  V30 28 Pb -2.2642 1.7401 4.8357 0
M  V30 29 Pb -3.0347 2.9577 4.7693 0
M  V30 30 Pb -3.4263 1.0508 5.2994 0
M  V30 31 Pd 1.7585 -4.1578 -1.2003 0
M  V30 32 Pb 1.0349 -3.5076 -0.9485 0
M  V30 33 Pb 1.2795 -4.2162 -2.0864 0
M  V30 34 Pb 2.2149 -4.1295 -0.3097 0
M  V30 35 Pb 2.5024 -4.7981 -1.4217 0
M  V30 36 Pd 0.5325 1.7440 0.7799 0
M  V30 37 Pb 0.5745 1.9037 -0.2051 0
M  V30 38 Pb 1.4541 2.1200 0.9126 0
M  V30 39 Pb -0.3461 1.3018 0.6053 0
M  V30 40 Pb 0.4586 1.5643 1.7639 0
M  V30 41 Pd 1.5600 -1.6062 -5.9722 0
M  V30 42 Pb 1.9875 -2.4143 -6.3624 0
M  V30 43 Pb 2.3939 -1.1000 -6.1922 0
M  V30 44 Pb 0.8683 -2.2113 -5.5766 0
M  V30 45 Pb 1.1985 -0.7921 -5.5207 0
M  V30 46 Ag 0.5387 1.9775 -0.9495 0
M  V30 47 Fe 0.7573 0.9494 -3.0779 0
M  V30 48 Ag 1.0046 -0.1657 -5.1589 0
M  V30 49 Ag 6.1758 -4.4505 -4.1875 0
M  V30 50 Fe 4.3302 -3.9896 -5.5888 0
M  V30 51 Ag 2.4048 -3.0022 -6.5369 0
M  V30 52 Ag -6.1383 5.9841 2.6086 0
M  V30 53 Fe -5.9202 4.3058 4.2478 0
M  V30 54 Ag -4.8095 2.5648 5.3830 0
M  V30 55 Ag 3.4136 -0.8137 2.7618 0
M  V30 56 Fe 1.1264 -1.3628 3.0352 0
M  V30 57 Ag -1.1653 -1.9345 3.2039 0
M  V30 58 Ag -5.6365 1.2903 -1.2543 0
M  V30 59 Fe -5.1179 -0.6121 0.0641 0
M  V30 60 Ag -4.1322 -2.2441 1.4758 0
M  V30 61 Ag 6.8948 -2.3082 -3.8592 0
M  V30 62 Fe 5.1579 -1.3612 -5.1734 0
M  V30 63 Ag 3.0942 -0.8332 -6.2238 0
M  V30 64 Ba 6.2880 -1.0741 0.8285 0
M  V30 65 Ga 6.7742 -1.8827 -0.3090 0
M  V30 66 Ba 7.3282 -2.6675 -1.4320 0
M  V30 67 Ba -3.7698 5.9047 2.7802 0
M  V30 68 Ga -3.3777 4.7597 3.6565 0
M  V30 69 Ba -2.9025 3.6891 4.5841 0
M  V30 70 Ba -3.4444 3.9473 -1.5950 0
M  V30 71 Ga -3.4369 5.1091 -0.6934 0
M  V30 72 Ba -3.5943 6.1915 0.2895 0
M  V30 73 Ba 0.8269 -4.2235 -2.6963 0
M  V30 74 Ga 0.6428 -3.4792 -3.9669 0
M  V30 75 Ba 0.4553 -2.7440 -5.2423 0
M  V30 76 Ba -5.8004 3.9314 -1.8089 0
M  V30 77 Ga -5.9429 5.1072 -0.9266 0
M  V30 78 Ba -5.9512 6.2102 0.0557 0
M  V30 79 Ba -3.4164 -2.1656 3.9210 0
M  V30 80 Ga -3.5380 -0.9320 4.7214 0
M  V30 81 Ba -3.6218 0.3426 5.4602 0
M  V30 82 Ba -3.5352 1.4348 -0.9527 0
M  V30 83 Ga -2.2401 1.2307 -0.2754 0
M  V30 84 Ba -0.9671 0.9313 0.4088 0
M  V30 85 Ba 4.5042 -2.5392 1.8710 0
M  V30 86 Ga 3.5677 -3.3751 1.0979 0
M  V30 87 Ba 2.6238 -4.1964 0.3179 0
M  V30 88 Ba -1.5477 1.5440 4.7079 0
M  V30 89 Ga -0.5928 1.4952 3.5790 0
M  V30 90 Ba 0.4178 1.4179 2.5014 0
M  V30 91 Ba -1.7705 -2.1351 0.8525 0
M  V30 92 Ga -0.6286 -2.6352 0.0542 0
M  V30 93 Ba 0.4760 -3.0087 -0.8576 0
M  V30 94 Ba 6.0063 -4.9912 -1.9644 0
M  V30 95 Ga 4.5548 -5.1402 -1.6982 0
M  V30 96 Ba 3.0988 -5.2650 -1.4448 0
M  V30 97 Ba 4.6818 0.8993 1.5078 0
M  V30 98 Ga 3.4438 1.6690 1.2549 0
M  V30 99 Ba 2.1622 2.3639 1.0026 0
M  V30 END ATOM
M  V30 BEGIN BOND
M  V30 1 1 1 2
M  V30 2 1 1 3
M  V30 3 1 1 4
M  V30 4 1 1 5
M  V30 5 1 6 7
M  V30 6 1 6 8
M  V30 7 1 6 9
M  V30 8 1 6 10
M  V30 9 1 11 12
M  V30 10 1 11 13
M  V30 11 1 11 14
M  V30 12 1 11 15
M  V30 13 1 16 17
M  V30 14 1 16 18
M  V30 15 1 16 19
M  V30 16 1 16 20
M  V30 17 1 21 22
M  V30 18 1 21 23
M  V30 19 1 21 24
M  V30 20 1 21 25
M  V30 21 1 26 27
M  V30 22 1 26 28
M  V30 23 1 26 29
M  V30 24 1 26 30
M  V30 25 1 31 32
M  V30 26 1 31 33
M  V30 27 1 31 34
M  V30 28 1 31 35
M  V30 29 1 36 37
M  V30 30 1 36 38
M  V30 31 1 36 39
M  V30 32 1 36 40
M  V30 33 1 41 42
M  V30 34 1 41 43
M  V30 35 1 41 44
M  V30 36 1 41 45
M  V30 37 1 46 47
M  V30 38 1 47 48
M  V30 39 1 49 50
M  V30 40 1 50 51
M  V30 41 1 52 53
M  V30 42 1 53 54
M  V30 43 1 55 56
M  V30 44 1 56 57
M  V30 45 1 58 59
M  V30 46 1 59 60
M  V30 47 1 61 62
M  V30 48 1 62 63
M  V30 49 1 64 65
M  V30 50 1 65 66
M  V30 51 1 67 68
M  V30 52 1 68 69
M  V30 53 1 70 71
M  V30 54 1 71 72
M  V30 55 1 73 74
M  V30 56 1 74 75
M  V30 57 1 76 77
M  V30 58 1 77 78
M  V30 59 1 79 80
M  V30 60 1 80 81
M  V30 61 1 82 83
M  V30 62 1 83 84
M  V30 63 1 85 86
M  V30 64 1 86 87
M  V30 65 1 88 89
M  V30 66 1 89 90
M  V30 67 1 91 92
M  V30 68 1 92 93
M  V30 69 1 94 95
M  V30 70 1 95 96
M  V30 71 1 97 98
M  V30 72 1 98 99
M  V30 73 1 2 58
M  V30 74 1 3 70
M  V30 75 1 4 76
M  V30 76 1 5 82
M  V30 77 1 7 52
M  V30 78 1 8 78
M  V30 79 1 9 72
M  V30 80 1 10 67
M  V30 81 1 12 85
M  V30 82 1 13 97
M  V30 83 1 14 64
M  V30 84 1 15 55
M  V30 85 1 17 61
M  V30 86 1 18 94
M  V30 87 1 19 49
M  V30 88 1 20 66
M  V30 89 1 22 91
M  V30 90 1 23 79
M  V30 91 1 24 57
M  V30 92 1 25 60
M  V30 93 1 27 54
M  V30 94 1 28 88
M  V30 95 1 29 69
M  V30 96 1 30 81
M  V30 97 1 32 93
M  V30 98 1 33 73
M  V30 99 1 34 87
M  V30 100 1 35 96
M  V30 101 1 37 46
M  V30 102 1 38 99
M  V30 103 1 39 84
M  V30 104 1 40 90
M  V30 105 1 42 51
M  V30 106 1 43 63
M  V30 107 1 44 75
M  V30 108 1 45 48
M  V30 END BOND
M  V30 END CTAB
M  END

$$$$
