
     RDKit          3D

  0  0  0  0  0  0  0  0  0  0999 V3000
M  V30 BEGIN CTAB
M  V30 COUNTS 99 108 0 0 0
M  V30 BEGIN ATOM
M  V30 1 Pd -4.4922 -1.0726 3.1614 0
M  V30 2 Pb -3.8884 -1.4780 3.8479 0
M  V30 3 Pb -4.5868 -0.2468 3.7213 0
M  V30 4 Pb -4.4639 -1.9354 2.6611 0
M  V30 5 Pb -5.0014 -0.6690 2.3990 0
M  V30 6 Pd -0.5892 7.3286 0.1508 0
M  V30 7 Pb 0.1322 6.8493 -0.3462 0
M  V30 8 Pb -0.0374 7.2874 0.9798 0
M  V30 9 Pb -1.1510 7.3669 -0.6803 0
M  V30 10 Pb -1.3056 7.7937 0.6945 0
M  V30 11 Pd 6.1461 -2.7338 0.8203 0
M  V30 12 Pb 6.0359 -3.6528 1.1983 0
M  V30 13 Pb 6.2028 -1.8400 0.3761 0
M  V30 14 Pb 6.5695 -3.0834 -0.0129 0
M  V30 15 Pb 5.6798 -2.3666 1.6271 0
M  V30 16 Pd 3.3327 -4.0539 -5.4154 0
M  V30 17 Pb 4.3118 -3.9521 -5.2622 0
M  V30 18 Pb 2.3409 -4.1762 -5.4317 0
M  V30 19 Pb 3.2708 -3.1763 -5.8921 0
M  V30 20 Pb 3.3818 -4.9005 -4.8897 0
M  V30 21 Pd 2.5661 1.5360 -4.3114 0
M  V30 22 Pb 2.4847 2.3301 -3.7100 0
M  V30 23 Pb 3.4486 1.3635 -3.8727 0
M  V30 24 Pb 2.7006 0.8105 -4.9932 0
M  V30 25 Pb 1.6429 1.7016 -4.6603 0
M  V30 26 Pd -0.7333 -6.9277 -0.2728 0
M  V30 27 Pb -0.9269 -6.5569 -1.1832 0
M  V30 28 Pb -0.4945 -7.2514 0.6442 0
M  V30 29 Pb -1.5999 -6.5662 0.0617 0
M  V30 30 Pb 0.1358 -7.2475 -0.6408 0
M  V30 31 Pd 2.1996 -4.7576 3.6891 0
M  V30 32 Pb 1.3935 -4.3512 4.1259 0
M  V30 33 Pb 1.6996 -5.6195 3.5779 0
M  V30 34 Pb 2.7019 -3.8950 3.7776 0
M  V30 35 Pb 3.0203 -5.1689 3.2894 0
M  V30 36 Pd -4.3632 4.2024 -2.3504 0
M  V30 37 Pb -3.7833 3.7511 -3.0319 0
M  V30 38 Pb -4.9523 4.6451 -1.6783 0
M  V30 39 Pb -3.9173 5.0763 -2.5557 0
M  V30 40 Pb -4.7967 3.3431 -2.0747 0
M  V30 41 Pd -4.1461 6.4867 4.5306 0
M  V30 42 Pb -3.2991 6.5458 5.0513 0
M  V30 43 Pb -4.4038 5.6412 4.9945 0
M  V30 44 Pb -4.9262 6.4023 3.9189 0
M  V30 45 Pb -3.8297 7.2489 3.9481 0
M  V30 46 Ag 0.6914 6.4842 -0.6843 0
M  V30 47 Fe 1.5265 4.6918 -1.9982 0
M  V30 48 Ag 2.4934 2.9550 -3.2961 0
M  V30 49 Ag -3.3843 -1.7955 4.3041 0
M  V30 50 Fe -1.2986 -2.9297 4.4232 0
M  V30 51 Ag 0.7923 -4.0594 4.4726 0
M  V30 52 Ag 0.9312 1.8223 -4.8672 0
M  V30 53 Fe -1.2166 2.6231 -4.2384 0
M  V30 54 Ag -3.3425 3.4372 -3.5544 0
M  V30 55 Ag 1.6149 -4.3278 -5.3206 0
M  V30 56 Fe 0.1763 -5.2728 -3.6826 0
M  V30 57 Ag -1.0014 -6.2597 -1.8699 0
M  V30 58 Ag 0.2454 7.2464 1.6663 0
M  V30 59 Fe -0.7633 6.9397 3.7767 0
M  V30 60 Ag -2.5844 6.6086 5.2380 0
M  V30 61 Ag 3.3783 -5.5038 -4.4486 0
M  V30 62 Fe 2.1849 -6.5882 -2.7107 0
M  V30 63 Ag 0.7704 -7.4132 -0.9965 0
M  V30 64 Ag 6.8253 -3.2639 -0.6920 0
M  V30 65 Fe 6.1132 -3.6246 -2.9244 0
M  V30 66 Ag 5.0099 -3.9281 -5.0005 0
M  V30 67 Ag -4.4720 -2.6026 2.3233 0
M  V30 68 Fe -3.3620 -4.4348 1.3049 0
M  V30 69 Ag -2.2439 -6.2621 0.2864 0
M  V30 70 Ag -5.3203 -0.4033 1.7717 0
M  V30 71 Fe -5.2691 1.1525 -0.0251 0
M  V30 72 Ag -5.1483 2.7445 -1.7866 0
M  V30 73 Ag -5.3924 4.9327 -1.1473 0
M  V30 74 Fe -5.5533 5.6655 1.1008 0
M  V30 75 Ag -5.4246 6.3380 3.3694 0
M  V30 76 Ag -4.6841 0.3365 4.1864 0
M  V30 77 Fe -4.6342 2.6451 4.7453 0
M  V30 78 Ag -4.5691 4.9627 5.2644 0
M  V30 79 Ag 6.2447 -1.2289 -0.0571 0
M  V30 80 Fe 5.1999 0.0617 -1.7565 0
M  V30 81 Ag 4.0662 1.2775 -3.4540 0
M  V30 82 Ba 3.2176 -2.5158 -6.2449 0
M  V30 83 Ga 3.0089 -1.1046 -5.8557 0
M  V30 84 Ba 2.8048 0.3310 -5.5666 0
M  V30 85 Ba 5.3079 -2.1182 2.2312 0
M  V30 86 Ga 4.2016 -2.6723 3.0391 0
M  V30 87 Ba 3.0947 -3.2553 3.8256 0
M  V30 88 Ba -1.8100 8.1699 1.1252 0
M  V30 89 Ga -2.6971 7.9414 2.3002 0
M  V30 90 Ba -3.6097 7.7975 3.4693 0
M  V30 91 Ba 5.9075 -4.3394 1.4714 0
M  V30 92 Ga 4.7892 -4.9180 2.2414 0
M  V30 93 Ba 3.6535 -5.4622 3.0110 0
M  V30 94 Ba -1.5618 7.4022 -1.3113 0
M  V30 95 Ga -2.5697 6.5597 -1.9915 0
M  V30 96 Ba -3.5792 5.7348 -2.6906 0
M  V30 97 Ba -0.2988 -7.4727 1.3351 0
M  V30 98 Ga 0.5104 -6.8715 2.4158 0
M  V30 99 Ba 1.3209 -6.2641 3.4919 0
M  V30 END ATOM
M  V30 BEGIN BOND
M  V30 1 1 1 2
M  V30 2 1 1 3
M  V30 3 1 1 4
M  V30 4 1 1 5
M  V30 5 1 6 7
M  V30 6 1 6 8
M  V30 7 1 6 9
M  V30 8 1 6 10
M  V30 9 1 11 12
M  V30 10 1 11 13
M  V30 11 1 11 14
M  V30 12 1 11 15
M  V30 13 1 16 17
M  V30 14 1 16 18
M  V30 15 1 16 19
M  V30 16 1 16 20
M  V30 17 1 21 22
M  V30 18 1 21 23
M  V30 19 1 21 24
M  V30 20 1 21 25
M  V30 21 1 26 27
M  V30 22 1 26 28
M  V30 23 1 26 29
M  V30 24 1 26 30
M  V30 25 1 31 32
M  V30 26 1 31 33
M  V30 27 1 31 34
M  V30 28 1 31 35
M  V30 29 1 36 37
M  V30 30 1 36 38
M  V30 31 1 36 39
M  V30 32 1 36 40
M  V30 33 1 41 42
M  V30 34 1 41 43
M  V30 35 1 41 44
M  V30 36 1 41 45
M  V30 37 1 46 47
M  V30 38 1 47 48
M  V30 39 1 49 50
M  V30 40 1 50 51
M  V30 41 1 52 53
M  V30 42 1 53 54
M  V30 43 1 55 56
M  V30 44 1 56 57
M  V30 45 1 58 59
M  V30 46 1 59 60
M  V30 47 1 61 62
M  V30 48 1 62 63
M  V30 49 1 64 65
M  V30 50 1 65 66
M  V30 51 1 67 68
M  V30 52 1 68 69
M  V30 53 1 70 71
M  V30 54 1 71 72
M  V30 55 1 73 74
M  V30 56 1 74 75
M  V30 57 1 76 77
M  V30 58 1 77 78
M  V30 59 1 79 80
M  V30 60 1 80 81
M  V30 61 1 82 83
M  V30 62 1 83 84
M  V30 63 1 85 86
M  V30 64 1 86 87
M  V30 65 1 88 89
M  V30 66 1 89 90
M  V30 67 1 91 92
M  V30 68 1 92 93
M  V30 69 1 94 95
M  V30 70 1 95 96
M  V30 71 1 97 98
M  V30 72 1 98 99
M  V30 73 1 2 49
M  V30 74 1 3 76
M  V30 75 1 4 67
M  V30 76 1 5 70
M  V30 77 1 7 46
M  V30 78 1 8 58
M  V30 79 1 9 94
M  V30 80 1 10 88
M  V30 81 1 12 91
M  V30 82 1 13 79
M  V30 83 1 14 64
M  V30 84 1 15 85
M  V30 85 1 17 66
M  V30 86 1 18 55
M  V30 87 1 19 82
M  V30 88 1 20 61
M  V30 89 1 22 48
M  V30 90 1 23 81
M  V30 91 1 24 84
M  V30 92 1 25 52
M  V30 93 1 27 57
M  V30 94 1 28 97
M  V30 95 1 29 69
M  V30 96 1 30 63
M  V30 97 1 32 51
M  V30 98 1 33 99
M  V30 99 1 34 87
M  V30 100 1 35 93
M  V30 101 1 37 54
M  V30 102 1 38 73
M  V30 103 1 39 96
M  V30 104 1 40 72
M  V30 105 1 42 60
M  V30 106 1 43 78
M  V30 107 1 44 75
M  V30 108 1 45 90
M  V30 END BOND
M  V30 END CTAB
M  END

$$$$
