
     RDKit          3D

  0  0  0  0  0  0  0  0  0  0999 V3000
M  V30 BEGIN CTAB
M  V30 COUNTS 99 108 0 0 0
M  V30 BEGIN ATOM
M  V30 1 Pd 1.4951 2.6345 2.7439 0
M  V30 2 Pb 2.4908 2.6699 2.6961 0
M  V30 3 Pb 0.4951 2.5770 2.7588 0
M  V30 4 Pb 1.5008 2.8797 3.7141 0
M  V30 5 Pb 1.5398 2.2838 1.8088 0
M  V30 6 Pd -5.7376 4.7208 -3.2162 0
M  V30 7 Pb -5.8078 3.7692 -3.5179 0
M  V30 8 Pb -5.5743 5.6496 -2.8927 0
M  V30 9 Pb -5.2442 4.9248 -4.0595 0
M  V30 10 Pb -6.1383 4.5118 -2.3210 0
M  V30 11 Pd 2.3027 -4.9718 -1.3868 0
M  V30 12 Pb 2.8657 -5.2183 -0.5952 0
M  V30 13 Pb 1.7858 -4.7722 -2.2267 0
M  V30 14 Pb 1.6178 -5.6431 -1.0925 0
M  V30 15 Pb 3.0169 -4.3284 -1.6688 0
M  V30 16 Pd -1.6126 -5.2527 2.3732 0
M  V30 17 Pb -1.2230 -5.9297 1.7474 0
M  V30 18 Pb -0.9308 -5.4433 3.0749 0
M  V30 19 Pb -2.2688 -5.0187 1.6620 0
M  V30 20 Pb -1.9488 -4.5226 2.9727 0
M  V30 21 Pd -1.8520 -1.9427 -4.4207 0
M  V30 22 Pb -2.6293 -1.3104 -4.4759 0
M  V30 23 Pb -1.1113 -2.6221 -4.3891 0
M  V30 24 Pb -2.3548 -2.4366 -3.7155 0
M  V30 25 Pb -1.3546 -1.4471 -5.1355 0
M  V30 26 Pd 1.7215 -0.6707 6.6995 0
M  V30 27 Pb 1.7354 -1.6658 6.6275 0
M  V30 28 Pb 2.7186 -0.7002 6.7250 0
M  V30 29 Pb 1.7012 0.3316 6.7146 0
M  V30 30 Pb 0.7353 -0.7239 6.5401 0
M  V30 31 Pd 6.0872 -2.4843 1.3632 0
M  V30 32 Pb 6.2730 -1.5055 1.3417 0
M  V30 33 Pb 6.2032 -2.4129 2.3538 0
M  V30 34 Pb 5.9049 -2.5075 0.3790 0
M  V30 35 Pb 5.7919 -3.4368 1.4258 0
M  V30 36 Pd 0.7269 2.8113 -4.8470 0
M  V30 37 Pb 0.6016 2.0447 -5.4768 0
M  V30 38 Pb 0.8108 3.5471 -4.1742 0
M  V30 39 Pb 0.1472 3.3831 -5.4229 0
M  V30 40 Pb 1.1888 2.2305 -4.1838 0
M  V30 41 Pd -3.1354 5.2805 0.7726 0
M  V30 42 Pb -3.4574 6.0583 0.2342 0
M  V30 43 Pb -2.8332 4.4958 1.3187 0
M  V30 44 Pb -2.1988 5.4898 0.4972 0
M  V30 45 Pb -4.0906 5.0045 0.8864 0
M  V30 46 Ag -5.7968 3.0600 -3.7651 0
M  V30 47 Fe -4.5170 1.0891 -4.1286 0
M  V30 48 Ag -3.2550 -0.8911 -4.5034 0
M  V30 49 Ag 3.2262 2.6226 2.5717 0
M  V30 50 Fe 4.9177 1.0670 1.9892 0
M  V30 51 Ag 6.3122 -0.7646 1.4233 0
M  V30 52 Ag -2.7115 -4.8370 1.0904 0
M  V30 53 Fe -2.7931 -3.8236 -1.0510 0
M  V30 54 Ag -2.7435 -2.7868 -3.1822 0
M  V30 55 Ag -0.4324 -5.4798 3.6292 0
M  V30 56 Fe 0.7260 -4.0751 5.1476 0
M  V30 57 Ag 1.7131 -2.4034 6.5086 0
M  V30 58 Ag -2.1194 -3.9588 3.4413 0
M  V30 59 Fe -1.1889 -2.3523 4.9266 0
M  V30 60 Ag 0.0289 -0.8728 6.3338 0
M  V30 61 Ag -4.7919 5.0356 -4.6443 0
M  V30 62 Fe -2.6034 4.5183 -5.3957 0
M  V30 63 Ag -0.3786 3.7870 -5.7664 0
M  V30 64 Ag 1.6661 1.9752 1.1365 0
M  V30 65 Fe 1.5821 1.8839 -1.2336 0
M  V30 66 Ag 1.4577 1.8476 -3.6032 0
M  V30 67 Ag 0.8525 4.0451 -3.6141 0
M  V30 68 Fe -0.2357 4.9139 -1.6905 0
M  V30 69 Ag -1.5352 5.6086 0.1715 0
M  V30 70 Ag 3.4498 -0.8315 6.6364 0
M  V30 71 Fe 4.9786 -1.5440 4.9658 0
M  V30 72 Ag 6.2407 -2.2628 3.0878 0
M  V30 73 Ba -0.9689 -1.0943 -5.6762 0
M  V30 74 Ga -0.2444 0.1856 -5.8059 0
M  V30 75 Ba 0.4803 1.4653 -5.9374 0
M  V30 76 Ba 3.5750 -3.8645 -1.8652 0
M  V30 77 Ga 4.6573 -3.1875 -1.1218 0
M  V30 78 Ba 5.7284 -2.5235 -0.3510 0
M  V30 79 Ba -6.3730 4.3940 -1.6151 0
M  V30 80 Ga -5.6509 4.5674 -0.3362 0
M  V30 81 Ba -4.8081 4.7833 0.8595 0
M  V30 82 Ba -5.3883 6.3091 -2.5961 0
M  V30 83 Ga -4.5683 6.5459 -1.3980 0
M  V30 84 Ba -3.7368 6.6118 -0.1859 0
M  V30 85 Ba 3.3159 -5.4260 -0.0293 0
M  V30 86 Ga 4.4143 -4.7916 0.7262 0
M  V30 87 Ba 5.5076 -4.1291 1.4647 0
M  V30 88 Ba 1.1360 -6.1711 -0.8545 0
M  V30 89 Ga 0.1001 -6.2847 0.1939 0
M  V30 90 Ba -0.9375 -6.4040 1.2399 0
M  V30 91 Ba 1.5180 3.0021 4.4548 0
M  V30 92 Ga 1.5960 2.0685 5.5976 0
M  V30 93 Ba 1.6746 1.0836 6.6965 0
M  V30 94 Ba -0.2537 2.5135 2.7793 0
M  V30 95 Ga -1.4263 3.2336 2.2403 0
M  V30 96 Ba -2.6462 3.8992 1.7375 0
M  V30 97 Ba 1.4552 -4.6674 -2.8984 0
M  V30 98 Ga 0.4174 -3.8659 -3.5883 0
M  V30 99 Ba -0.5769 -3.1545 -4.4255 0
M  V30 END ATOM
M  V30 BEGIN BOND
M  V30 1 1 1 2
M  V30 2 1 1 3
M  V30 3 1 1 4
M  V30 4 1 1 5
M  V30 5 1 6 7
M  V30 6 1 6 8
M  V30 7 1 6 9
M  V30 8 1 6 10
M  V30 9 1 11 12
M  V30 10 1 11 13
M  V30 11 1 11 14
M  V30 12 1 11 15
M  V30 13 1 16 17
M  V30 14 1 16 18
M  V30 15 1 16 19
M  V30 16 1 16 20
M  V30 17 1 21 22
M  V30 18 1 21 23
M  V30 19 1 21 24
M  V30 20 1 21 25
M  V30 21 1 26 27
M  V30 22 1 26 28
M  V30 23 1 26 29
M  V30 24 1 26 30
M  V30 25 1 31 32
M  V30 26 1 31 33
M  V30 27 1 31 34
M  V30 28 1 31 35
M  V30 29 1 36 37
M  V30 30 1 36 38
M  V30 31 1 36 39
M  V30 32 1 36 40
M  V30 33 1 41 42
M  V30 34 1 41 43
M  V30 35 1 41 44
M  V30 36 1 41 45
M  V30 37 1 46 47
M  V30 38 1 47 48
M  V30 39 1 49 50
M  V30 40 1 50 51
M  V30 41 1 52 53
M  V30 42 1 53 54
M  V30 43 1 55 56
M  V30 44 1 56 57
M  V30 45 1 58 59
M  V30 46 1 59 60
M  V30 47 1 61 62
M  V30 48 1 62 63
M  V30 49 1 64 65
M  V30 50 1 65 66
M  V30 51 1 67 68
M  V30 52 1 68 69
M  V30 53 1 70 71
M  V30 54 1 71 72
M  V30 55 1 73 74
M  V30 56 1 74 75
M  V30 57 1 76 77
M  V30 58 1 77 78
M  V30 59 1 79 80
M  V30 60 1 80 81
M  V30 61 1 82 83
M  V30 62 1 83 84
M  V30 63 1 85 86
M  V30 64 1 86 87
M  V30 65 1 88 89
M  V30 66 1 89 90
M  V30 67 1 91 92
M  V30 68 1 92 93
M  V30 69 1 94 95
M  V30 70 1 95 96
M  V30 71 1 97 98
M  V30 72 1 98 99
M  V30 73 1 2 49
M  V30 74 1 3 94
M  V30 75 1 4 91
M  V30 76 1 5 64
M  V30 77 1 7 46
M  V30 78 1 8 82
M  V30 79 1 9 61
M  V30 80 1 10 79
M  V30 81 1 12 85
M  V30 82 1 13 97
M  V30 83 1 14 88
M  V30 84 1 15 76
M  V30 85 1 17 90
M  V30 86 1 18 55
M  V30 87 1 19 52
M  V30 88 1 20 58
M  V30 89 1 22 48
M  V30 90 1 23 99
M  V30 91 1 24 54
M  V30 92 1 25 73
M  V30 93 1 27 57
M  V30 94 1 28 70
M  V30 95 1 29 93
M  V30 96 1 30 60
M  V30 97 1 32 51
M  V30 98 1 33 72
M  V30 99 1 34 78
M  V30 100 1 35 87
M  V30 101 1 37 75
M  V30 102 1 38 67
M  V30 103 1 39 63
M  V30 104 1 40 66
M  V30 105 1 42 84
M  V30 106 1 43 96
M  V30 107 1 44 69
M  V30 108 1 45 81
M  V30 END BOND
M  V30 END CTAB
M  END

$$$$
