
     RDKit          3D

  0  0  0  0  0  0  0  0  0  0999 V3000
M  V30 BEGIN CTAB
M  V30 COUNTS 99 108 0 0 0
M  V30 BEGIN ATOM
M  V30 1 Pd 1.2260 3.8861 2.7322 0
M  V30 2 Pb 0.7634 3.9239 3.6207 0
M  V30 3 Pb 0.3369 3.8020 2.2820 0
M  V30 4 Pb 2.1220 3.9343 3.1752 0
M  V30 5 Pb 1.6856 3.8491 1.8445 0
M  V30 6 Pd -5.3923 1.8445 -6.7941 0
M  V30 7 Pb -5.1949 0.8674 -6.7033 0
M  V30 8 Pb -5.9419 1.8493 -5.9593 0
M  V30 9 Pb -4.7048 1.9330 -7.5070 0
M  V30 10 Pb -5.5252 2.8299 -6.8608 0
M  V30 11 Pd -1.6770 -4.8181 2.7461 0
M  V30 12 Pb -2.3974 -4.1547 2.5913 0
M  V30 13 Pb -1.9013 -5.2297 1.8640 0
M  V30 14 Pb -0.9661 -5.5153 2.8656 0
M  V30 15 Pb -1.4497 -4.3562 3.6295 0
M  V30 16 Pd 3.7869 -5.5463 1.9366 0
M  V30 17 Pb 2.9911 -6.1198 2.1370 0
M  V30 18 Pb 4.0266 -5.5474 2.9045 0
M  V30 19 Pb 3.5879 -5.5364 0.9555 0
M  V30 20 Pb 4.5635 -4.9268 1.8020 0
M  V30 21 Pd -0.4076 -3.7054 -4.4540 0
M  V30 22 Pb -1.2440 -3.3665 -4.8909 0
M  V30 23 Pb -0.9478 -4.3477 -3.9141 0
M  V30 24 Pb 0.4134 -4.0726 -4.0160 0
M  V30 25 Pb 0.1566 -3.0274 -4.9262 0
M  V30 26 Pd 6.2770 -0.4109 6.0718 0
M  V30 27 Pb 6.1936 -1.3762 6.3031 0
M  V30 28 Pb 5.6897 -0.1879 6.8441 0
M  V30 29 Pb 6.2437 0.5453 5.7849 0
M  V30 30 Pb 6.6997 -0.6982 5.2119 0
M  V30 31 Pd -0.9659 0.2482 6.0572 0
M  V30 32 Pb -0.9099 1.2468 6.0943 0
M  V30 33 Pb -0.1783 0.2063 6.6712 0
M  V30 34 Pb -0.9839 -0.7705 5.9650 0
M  V30 35 Pb -1.7642 0.3184 5.4733 0
M  V30 36 Pd 1.0848 3.6946 -5.0632 0
M  V30 37 Pb 1.4617 2.8030 -5.3128 0
M  V30 38 Pb 0.6356 4.5484 -4.7885 0
M  V30 39 Pb 0.5711 3.6545 -5.9181 0
M  V30 40 Pb 1.6033 3.7027 -4.2082 0
M  V30 41 Pd -3.8676 4.8070 -3.2473 0
M  V30 42 Pb -4.6772 4.2153 -3.1795 0
M  V30 43 Pb -3.5548 4.4898 -2.3515 0
M  V30 44 Pb -3.0374 5.3578 -3.3677 0
M  V30 45 Pb -4.2191 5.1376 -4.1206 0
M  V30 46 Ag -5.0108 0.1423 -6.6362 0
M  V30 47 Fe -3.4431 -1.4939 -5.9179 0
M  V30 48 Ag -1.8905 -3.1484 -5.2086 0
M  V30 49 Ag 0.6074 -2.5059 -5.2231 0
M  V30 50 Fe 1.1856 -0.2094 -5.4074 0
M  V30 51 Ag 1.6695 2.1133 -5.5208 0
M  V30 52 Ag 3.4812 -5.5178 0.2123 0
M  V30 53 Fe 2.2287 -4.9341 -1.7204 0
M  V30 54 Ag 1.0159 -4.3737 -3.6851 0
M  V30 55 Ag 4.2634 -5.4830 3.6097 0
M  V30 56 Fe 5.1753 -3.9240 5.1440 0
M  V30 57 Ag 6.0525 -2.1041 6.3826 0
M  V30 58 Ag -2.8768 -3.5954 2.5406 0
M  V30 59 Fe -3.0058 -1.4861 3.5743 0
M  V30 60 Ag -2.3332 0.2535 5.0077 0
M  V30 61 Ag 5.1330 -4.4348 1.7956 0
M  V30 62 Fe 6.1435 -2.6904 3.0558 0
M  V30 63 Ag 6.8926 -1.0028 4.5533 0
M  V30 64 Ag -4.1018 2.1005 -7.9093 0
M  V30 65 Fe -1.8998 2.8353 -7.4342 0
M  V30 66 Ag 0.1805 3.5438 -6.5466 0
M  V30 67 Ag 2.8052 3.9351 3.4864 0
M  V30 68 Fe 4.5231 2.6717 4.5318 0
M  V30 69 Ag 6.1222 1.2500 5.5621 0
M  V30 70 Ag 2.0417 3.8225 1.1846 0
M  V30 71 Fe 2.0084 3.7653 -1.1896 0
M  V30 72 Ag 1.9870 3.7078 -3.5639 0
M  V30 73 Ag -0.3317 3.7151 1.9533 0
M  V30 74 Fe -1.8134 4.0055 0.1196 0
M  V30 75 Ag -3.3589 4.2524 -1.6671 0
M  V30 76 Ag 5.1400 -0.0668 7.3331 0
M  V30 77 Fe 2.7740 0.0987 7.3653 0
M  V30 78 Ag 0.4167 0.2195 7.1268 0
M  V30 79 Ag -2.0606 -5.4980 1.1834 0
M  V30 80 Fe -1.7508 -5.2364 -1.1545 0
M  V30 81 Ag -1.3139 -4.8013 -3.4458 0
M  V30 82 Ba 0.4026 3.9574 4.2801 0
M  V30 83 Ga -0.2199 2.9782 5.1945 0
M  V30 84 Ba -0.8405 1.9943 6.1051 0
M  V30 85 Ba -1.2892 -4.0396 4.3148 0
M  V30 86 Ga -1.1512 -2.7356 5.0453 0
M  V30 87 Ba -0.9705 -1.5423 5.9376 0
M  V30 88 Ba -5.5596 3.5754 -6.8703 0
M  V30 89 Ga -5.0647 4.5238 -5.8624 0
M  V30 90 Ba -4.5253 5.3461 -4.7699 0
M  V30 91 Ba -6.2656 1.9400 -5.2884 0
M  V30 92 Ga -5.8219 2.8297 -4.1926 0
M  V30 93 Ba -5.2772 3.7567 -3.1758 0
M  V30 94 Ba -0.4654 -6.0764 2.9041 0
M  V30 95 Ga 0.9703 -6.2838 2.6201 0
M  V30 96 Ba 2.4015 -6.5350 2.3485 0
M  V30 97 Ba 0.2859 5.1719 -4.5509 0
M  V30 98 Ga -1.0634 5.4693 -4.0207 0
M  V30 99 Ba -2.4137 5.7625 -3.4909 0
M  V30 END ATOM
M  V30 BEGIN BOND
M  V30 1 1 1 2
M  V30 2 1 1 3
M  V30 3 1 1 4
M  V30 4 1 1 5
M  V30 5 1 6 7
M  V30 6 1 6 8
M  V30 7 1 6 9
M  V30 8 1 6 10
M  V30 9 1 11 12
M  V30 10 1 11 13
M  V30 11 1 11 14
M  V30 12 1 11 15
M  V30 13 1 16 17
M  V30 14 1 16 18
M  V30 15 1 16 19
M  V30 16 1 16 20
M  V30 17 1 21 22
M  V30 18 1 21 23
M  V30 19 1 21 24
M  V30 20 1 21 25
M  V30 21 1 26 27
M  V30 22 1 26 28
M  V30 23 1 26 29
M  V30 24 1 26 30
M  V30 25 1 31 32
M  V30 26 1 31 33
M  V30 27 1 31 34
M  V30 28 1 31 35
M  V30 29 1 36 37
M  V30 30 1 36 38
M  V30 31 1 36 39
M  V30 32 1 36 40
M  V30 33 1 41 42
M  V30 34 1 41 43
M  V30 35 1 41 44
M  V30 36 1 41 45
M  V30 37 1 46 47
M  V30 38 1 47 48
M  V30 39 1 49 50
M  V30 40 1 50 51
M  V30 41 1 52 53
M  V30 42 1 53 54
M  V30 43 1 55 56
M  V30 44 1 56 57
M  V30 45 1 58 59
M  V30 46 1 59 60
M  V30 47 1 61 62
M  V30 48 1 62 63
M  V30 49 1 64 65
M  V30 50 1 65 66
M  V30 51 1 67 68
M  V30 52 1 68 69
M  V30 53 1 70 71
M  V30 54 1 71 72
M  V30 55 1 73 74
M  V30 56 1 74 75
M  V30 57 1 76 77
M  V30 58 1 77 78
M  V30 59 1 79 80
M  V30 60 1 80 81
M  V30 61 1 82 83
M  V30 62 1 83 84
M  V30 63 1 85 86
M  V30 64 1 86 87
M  V30 65 1 88 89
M  V30 66 1 89 90
M  V30 67 1 91 92
M  V30 68 1 92 93
M  V30 69 1 94 95
M  V30 70 1 95 96
M  V30 71 1 97 98
M  V30 72 1 98 99
M  V30 73 1 2 82
M  V30 74 1 3 73
M  V30 75 1 4 67
M  V30 76 1 5 70
M  V30 77 1 7 46
M  V30 78 1 8 91
M  V30 79 1 9 64
M  V30 80 1 10 88
M  V30 81 1 12 58
M  V30 82 1 13 79
M  V30 83 1 14 94
M  V30 84 1 15 85
M  V30 85 1 17 96
M  V30 86 1 18 55
M  V30 87 1 19 52
M  V30 88 1 20 61
M  V30 89 1 22 48
M  V30 90 1 23 81
M  V30 91 1 24 54
M  V30 92 1 25 49
M  V30 93 1 27 57
M  V30 94 1 28 76
M  V30 95 1 29 69
M  V30 96 1 30 63
M  V30 97 1 32 84
M  V30 98 1 33 78
M  V30 99 1 34 87
M  V30 100 1 35 60
M  V30 101 1 37 51
M  V30 102 1 38 97
M  V30 103 1 39 66
M  V30 104 1 40 72
M  V30 105 1 42 93
M  V30 106 1 43 75
M  V30 107 1 44 99
M  V30 108 1 45 90
M  V30 END BOND
M  V30 END CTAB
M  END

$$$$
