
     RDKit          3D

  0  0  0  0  0  0  0  0  0  0999 V3000
M  V30 BEGIN CTAB
M  V30 COUNTS 99 108 0 0 0
M  V30 BEGIN ATOM
M  V30 1 Pd 1.1966 -4.0267 0.7621 0
M  V30 2 Pb 2.1393 -3.7292 0.9140 0
M  V30 3 Pb 1.2420 -4.5989 1.5805 0
M  V30 4 Pb 1.1009 -3.4056 -0.0181 0
M  V30 5 Pb 0.2400 -4.2833 0.6545 0
M  V30 6 Pd -1.6925 1.1131 6.4117 0
M  V30 7 Pb -1.5396 1.8114 5.7113 0
M  V30 8 Pb -0.7438 0.7845 6.3506 0
M  V30 9 Pb -2.6767 1.2840 6.4212 0
M  V30 10 Pb -1.8493 0.4643 7.1447 0
M  V30 11 Pd 2.3287 5.4343 -2.9052 0
M  V30 12 Pb 2.6150 5.6265 -1.9734 0
M  V30 13 Pb 1.4517 5.8769 -2.7167 0
M  V30 14 Pb 2.0437 5.2837 -3.8545 0
M  V30 15 Pb 3.2102 4.9468 -3.0583 0
M  V30 16 Pd -1.1752 0.9169 -7.6456 0
M  V30 17 Pb -0.7948 1.8301 -7.7763 0
M  V30 18 Pb -1.4166 -0.0248 -7.3634 0
M  V30 19 Pb -1.8117 1.3081 -6.9814 0
M  V30 20 Pb -0.5732 0.5301 -8.3387 0
M  V30 21 Pd -2.6659 4.0242 -0.7088 0
M  V30 22 Pb -2.2957 4.1821 0.2058 0
M  V30 23 Pb -2.1311 4.7873 -1.0811 0
M  V30 24 Pb -3.0094 3.8144 -1.6228 0
M  V30 25 Pb -3.2670 3.3148 -0.3371 0
M  V30 26 Pd 1.5582 -3.1561 -5.0389 0
M  V30 27 Pb 0.6168 -3.0208 -5.3898 0
M  V30 28 Pb 2.5131 -3.1399 -4.7524 0
M  V30 29 Pb 1.2841 -2.8218 -4.1351 0
M  V30 30 Pb 1.8510 -3.3872 -5.9626 0
M  V30 31 Pd 6.0729 1.2317 -1.0243 0
M  V30 32 Pb 6.1013 0.4877 -0.3609 0
M  V30 33 Pb 6.0872 0.5206 -1.7244 0
M  V30 34 Pb 5.9176 1.9675 -1.7101 0
M  V30 35 Pb 6.0286 1.9092 -0.2988 0
M  V30 36 Pd -4.9464 -1.9244 3.9937 0
M  V30 37 Pb -5.1009 -1.2217 3.2984 0
M  V30 38 Pb -4.7713 -2.6675 4.6477 0
M  V30 39 Pb -5.1319 -1.2326 4.6968 0
M  V30 40 Pb -4.7217 -2.5740 3.2723 0
M  V30 41 Pd -0.6061 -3.7114 6.1113 0
M  V30 42 Pb 0.1273 -3.0249 6.1127 0
M  V30 43 Pb -0.1451 -4.2752 5.4196 0
M  V30 44 Pb -1.4461 -4.2505 6.0744 0
M  V30 45 Pb -1.0232 -3.2340 6.8752 0
M  V30 46 Ag -1.4303 2.3615 5.2122 0
M  V30 47 Fe -1.7182 3.3154 3.0562 0
M  V30 48 Ag -2.0128 4.2569 0.8957 0
M  V30 49 Ag 2.8322 -3.4770 1.0513 0
M  V30 50 Fe 4.5002 -1.8405 0.6342 0
M  V30 51 Ag 6.0305 -0.1141 0.0766 0
M  V30 52 Ag -3.7627 2.8169 -0.0705 0
M  V30 53 Fe -4.4451 1.0502 1.3645 0
M  V30 54 Ag -5.2153 -0.7138 2.7577 0
M  V30 55 Ag -2.2936 1.6325 -6.5075 0
M  V30 56 Fe -2.7834 2.6272 -4.4082 0
M  V30 57 Ag -3.2540 3.6177 -2.3026 0
M  V30 58 Ag 2.9120 5.6755 -1.2971 0
M  V30 59 Fe 4.4490 4.3213 -0.1357 0
M  V30 60 Ag 5.8812 2.4752 0.1537 0
M  V30 61 Ag -0.1181 0.1207 -8.7589 0
M  V30 62 Fe 1.1771 -1.7723 -8.2209 0
M  V30 63 Ag 1.9904 -3.3665 -6.6899 0
M  V30 64 Ag 1.8101 5.1964 -4.5647 0
M  V30 65 Fe 0.6914 3.9118 -6.2212 0
M  V30 66 Ag -0.4546 2.4962 -7.7467 0
M  V30 67 Ag -0.4916 -4.4257 0.6271 0
M  V30 68 Fe -2.5699 -3.8299 1.5972 0
M  V30 69 Ag -4.4910 -3.0439 2.7407 0
M  V30 70 Ag 3.2290 -3.0241 -4.5716 0
M  V30 71 Fe 4.7200 -1.5959 -3.4030 0
M  V30 72 Ag 6.0667 -0.0713 -2.1820 0
M  V30 73 Ba -1.5551 -0.7334 -7.1161 0
M  V30 74 Ga -0.7969 -1.8002 -6.3969 0
M  V30 75 Ba -0.0793 -2.8959 -5.6795 0
M  V30 76 Ba 3.8863 4.6047 -3.1863 0
M  V30 77 Ga 4.7951 3.5400 -2.6555 0
M  V30 78 Ba 5.7999 2.5112 -2.2391 0
M  V30 79 Ba -1.9626 -0.0421 7.6736 0
M  V30 80 Ga -1.6727 -1.4737 7.6359 0
M  V30 81 Ba -1.3288 -2.8822 7.4534 0
M  V30 82 Ba -0.0658 0.4521 6.3018 0
M  V30 83 Ga 0.3169 -0.9798 6.2098 0
M  V30 84 Ba 0.5996 -2.4349 6.1213 0
M  V30 85 Ba -3.4265 1.2873 6.4351 0
M  V30 86 Ga -4.3771 0.3386 5.8168 0
M  V30 87 Ba -5.2570 -0.6548 5.1651 0
M  V30 88 Ba 0.9740 -2.9050 -0.5643 0
M  V30 89 Ga 1.0594 -2.7693 -2.0329 0
M  V30 90 Ba 1.0920 -2.4973 -3.4845 0
M  V30 91 Ba -4.6240 -3.2872 5.0549 0
M  V30 92 Ga -3.4002 -3.9358 5.5776 0
M  V30 93 Ba -2.1421 -4.5308 6.0818 0
M  V30 94 Ba 1.2479 -5.0158 2.2037 0
M  V30 95 Ga 0.7237 -4.8492 3.5757 0
M  V30 96 Ba 0.2252 -4.7488 4.9635 0
M  V30 97 Ba 0.7951 6.2031 -2.5576 0
M  V30 98 Ga -0.4831 5.7671 -1.9582 0
M  V30 99 Ba -1.7837 5.3923 -1.3657 0
M  V30 END ATOM
M  V30 BEGIN BOND
M  V30 1 1 1 2
M  V30 2 1 1 3
M  V30 3 1 1 4
M  V30 4 1 1 5
M  V30 5 1 6 7
M  V30 6 1 6 8
M  V30 7 1 6 9
M  V30 8 1 6 10
M  V30 9 1 11 12
M  V30 10 1 11 13
M  V30 11 1 11 14
M  V30 12 1 11 15
M  V30 13 1 16 17
M  V30 14 1 16 18
M  V30 15 1 16 19
M  V30 16 1 16 20
M  V30 17 1 21 22
M  V30 18 1 21 23
M  V30 19 1 21 24
M  V30 20 1 21 25
M  V30 21 1 26 27
M  V30 22 1 26 28
M  V30 23 1 26 29
M  V30 24 1 26 30
M  V30 25 1 31 32
M  V30 26 1 31 33
M  V30 27 1 31 34
M  V30 28 1 31 35
M  V30 29 1 36 37
M  V30 30 1 36 38
M  V30 31 1 36 39
M  V30 32 1 36 40
M  V30 33 1 41 42
M  V30 34 1 41 43
M  V30 35 1 41 44
M  V30 36 1 41 45
M  V30 37 1 46 47
M  V30 38 1 47 48
M  V30 39 1 49 50
M  V30 40 1 50 51
M  V30 41 1 52 53
M  V30 42 1 53 54
M  V30 43 1 55 56
M  V30 44 1 56 57
M  V30 45 1 58 59
M  V30 46 1 59 60
M  V30 47 1 61 62
M  V30 48 1 62 63
M  V30 49 1 64 65
M  V30 50 1 65 66
M  V30 51 1 67 68
M  V30 52 1 68 69
M  V30 53 1 70 71
M  V30 54 1 71 72
M  V30 55 1 73 74
M  V30 56 1 74 75
M  V30 57 1 76 77
M  V30 58 1 77 78
M  V30 59 1 79 80
M  V30 60 1 80 81
M  V30 61 1 82 83
M  V30 62 1 83 84
M  V30 63 1 85 86
M  V30 64 1 86 87
M  V30 65 1 88 89
M  V30 66 1 89 90
M  V30 67 1 91 92
M  V30 68 1 92 93
M  V30 69 1 94 95
M  V30 70 1 95 96
M  V30 71 1 97 98
M  V30 72 1 98 99
M  V30 73 1 2 49
M  V30 74 1 3 94
M  V30 75 1 4 88
M  V30 76 1 5 67
M  V30 77 1 7 46
M  V30 78 1 8 82
M  V30 79 1 9 85
M  V30 80 1 10 79
M  V30 81 1 12 58
M  V30 82 1 13 97
M  V30 83 1 14 64
M  V30 84 1 15 76
M  V30 85 1 17 66
M  V30 86 1 18 73
M  V30 87 1 19 55
M  V30 88 1 20 61
M  V30 89 1 22 48
M  V30 90 1 23 99
M  V30 91 1 24 57
M  V30 92 1 25 52
M  V30 93 1 27 75
M  V30 94 1 28 70
M  V30 95 1 29 90
M  V30 96 1 30 63
M  V30 97 1 32 51
M  V30 98 1 33 72
M  V30 99 1 34 78
M  V30 100 1 35 60
M  V30 101 1 37 54
M  V30 102 1 38 91
M  V30 103 1 39 87
M  V30 104 1 40 69
M  V30 105 1 42 84
M  V30 106 1 43 96
M  V30 107 1 44 93
M  V30 108 1 45 81
M  V30 END BOND
M  V30 END CTAB
M  END

$$$$
