
     RDKit          3D

  0  0  0  0  0  0  0  0  0  0999 V3000
M  V30 BEGIN CTAB
M  V30 COUNTS 99 108 0 0 0
M  V30 BEGIN ATOM
M  V30 1 Pd -4.5471 0.9500 0.0001 0
M  V30 2 Pb -4.2531 1.8784 -0.2472 0
M  V30 3 Pb -4.9740 0.0753 0.2444 0
M  V30 4 Pb -4.4856 0.6123 -0.9438 0
M  V30 5 Pb -4.5911 1.2577 0.9529 0
M  V30 6 Pd 0.9140 -6.1649 2.1585 0
M  V30 7 Pb 1.0459 -5.4454 1.4766 0
M  V30 8 Pb 0.3352 -6.6719 1.5206 0
M  V30 9 Pb 1.3257 -5.5805 2.8525 0
M  V30 10 Pb 0.6083 -6.7980 2.8669 0
M  V30 11 Pd 5.2855 5.0738 -1.3954 0
M  V30 12 Pb 5.0552 5.7543 -0.7098 0
M  V30 13 Pb 5.7065 4.5344 -0.6710 0
M  V30 14 Pb 5.5587 4.3752 -2.0652 0
M  V30 15 Pb 4.7297 5.5945 -2.0726 0
M  V30 16 Pd 3.9859 -0.1289 -3.3088 0
M  V30 17 Pb 4.7160 0.5583 -3.3666 0
M  V30 18 Pb 3.5172 0.3477 -4.0453 0
M  V30 19 Pb 4.4792 -0.6576 -2.6152 0
M  V30 20 Pb 3.2203 -0.7805 -3.2582 0
M  V30 21 Pd 3.0105 -0.9318 1.6047 0
M  V30 22 Pb 2.3608 -1.5784 1.2029 0
M  V30 23 Pb 3.7047 -0.2811 1.9015 0
M  V30 24 Pb 3.7368 -1.4259 1.1345 0
M  V30 25 Pb 2.2988 -0.3262 1.9732 0
M  V30 26 Pd -1.1508 0.1940 -4.6161 0
M  V30 27 Pb -0.2992 0.4917 -5.0378 0
M  V30 28 Pb -1.5487 1.0269 -4.9844 0
M  V30 29 Pb -2.0323 -0.0603 -4.2105 0
M  V30 30 Pb -0.6667 -0.5880 -4.2162 0
M  V30 31 Pd -0.1523 6.9332 -2.4035 0
M  V30 32 Pb -1.0432 6.7270 -1.9997 0
M  V30 33 Pb -0.4867 6.4819 -3.2255 0
M  V30 34 Pb 0.7995 6.9850 -2.7657 0
M  V30 35 Pb 0.1400 7.4047 -1.5795 0
M  V30 36 Pd -1.7971 -0.0413 4.6607 0
M  V30 37 Pb -1.1289 0.4800 4.1321 0
M  V30 38 Pb -2.4713 -0.5953 5.1502 0
M  V30 39 Pb -1.0543 -0.6585 4.9169 0
M  V30 40 Pb -2.5379 0.5678 4.3703 0
M  V30 41 Pd -5.5101 -6.0453 3.3479 0
M  V30 42 Pb -5.2275 -6.5720 2.5471 0
M  V30 43 Pb -5.9496 -5.3599 2.7677 0
M  V30 44 Pb -5.6159 -5.4358 4.1306 0
M  V30 45 Pb -4.9437 -6.6626 3.8922 0
M  V30 46 Ag -4.1218 2.6110 -0.3751 0
M  V30 47 Fe -2.8909 4.5316 -1.0488 0
M  V30 48 Ag -1.6900 6.4737 -1.7156 0
M  V30 49 Ag 0.2198 -7.1986 3.3640 0
M  V30 50 Fe -2.0607 -7.3436 3.9983 0
M  V30 51 Ag -4.4072 -7.0739 4.2132 0
M  V30 52 Ag -0.2235 -6.9967 1.1421 0
M  V30 53 Fe -2.5855 -7.1231 1.3355 0
M  V30 54 Ag -4.8558 -6.9151 1.9950 0
M  V30 55 Ag 4.7703 6.2580 -0.2493 0
M  V30 56 Fe 2.6612 7.2977 -0.1878 0
M  V30 57 Ag 0.4866 7.6908 -0.9930 0
M  V30 58 Ag 1.4990 -5.0862 3.3842 0
M  V30 59 Fe 0.6348 -3.0884 4.3265 0
M  V30 60 Ag -0.4772 -1.1192 5.0430 0
M  V30 61 Ag -3.0010 -1.0235 5.4652 0
M  V30 62 Fe -4.3622 -2.9512 5.2055 0
M  V30 63 Ag -5.5746 -4.9207 4.6711 0
M  V30 64 Ag -5.3688 -0.5502 0.3903 0
M  V30 65 Fe -5.7744 -2.6786 1.3694 0
M  V30 66 Ag -6.2116 -4.8083 2.3318 0
M  V30 67 Ag -1.7267 1.7086 -5.2217 0
M  V30 68 Fe -1.3554 3.9742 -4.6424 0
M  V30 69 Ag -0.8073 6.1140 -3.7892 0
M  V30 70 Ag 5.9070 4.1050 -0.0947 0
M  V30 71 Fe 5.2164 2.1708 1.0882 0
M  V30 72 Ag 4.2509 0.2150 2.0155 0
M  V30 73 Ba 1.0408 -4.8783 0.9848 0
M  V30 74 Ga 1.5121 -3.4796 0.9332 0
M  V30 75 Ba 1.9509 -2.0746 0.8147 0
M  V30 76 Ba 1.8273 0.2197 2.1964 0
M  V30 77 Ga 0.5992 0.4808 2.9755 0
M  V30 78 Ba -0.6178 0.8501 3.7287 0
M  V30 79 Ba 4.8312 -1.0923 -2.1125 0
M  V30 80 Ga 4.5930 -1.4346 -0.6984 0
M  V30 81 Ba 4.2814 -1.7164 0.7145 0
M  V30 82 Ba 3.1628 0.6727 -4.6138 0
M  V30 83 Ga 1.7476 0.7256 -5.0006 0
M  V30 84 Ba 0.3229 0.7556 -5.3540 0
M  V30 85 Ba 4.3019 6.0062 -2.5622 0
M  V30 86 Ga 2.8898 6.4737 -2.7527 0
M  V30 87 Ba 1.5162 6.9986 -3.0466 0
M  V30 88 Ba 2.6362 -1.2602 -3.2207 0
M  V30 89 Ga 1.1956 -1.2085 -3.5672 0
M  V30 90 Ba -0.2423 -1.1362 -3.9207 0
M  V30 91 Ba 5.8238 3.8471 -2.5362 0
M  V30 92 Ga 5.4977 2.4693 -2.9729 0
M  V30 93 Ba 5.2398 1.0934 -3.4587 0
M  V30 94 Ba -4.4748 0.2887 -1.6252 0
M  V30 95 Ga -3.5573 0.0640 -2.7643 0
M  V30 96 Ba -2.7225 -0.2175 -3.9534 0
M  V30 97 Ba -4.6134 1.5057 1.6627 0
M  V30 98 Ga -3.8534 1.2497 2.9040 0
M  V30 99 Ba -3.1075 1.0102 4.1572 0
M  V30 END ATOM
M  V30 BEGIN BOND
M  V30 1 1 1 2
M  V30 2 1 1 3
M  V30 3 1 1 4
M  V30 4 1 1 5
M  V30 5 1 6 7
M  V30 6 1 6 8
M  V30 7 1 6 9
M  V30 8 1 6 10
M  V30 9 1 11 12
M  V30 10 1 11 13
M  V30 11 1 11 14
M  V30 12 1 11 15
M  V30 13 1 16 17
M  V30 14 1 16 18
M  V30 15 1 16 19
M  V30 16 1 16 20
M  V30 17 1 21 22
M  V30 18 1 21 23
M  V30 19 1 21 24
M  V30 20 1 21 25
M  V30 21 1 26 27
M  V30 22 1 26 28
M  V30 23 1 26 29
M  V30 24 1 26 30
M  V30 25 1 31 32
M  V30 26 1 31 33
M  V30 27 1 31 34
M  V30 28 1 31 35
M  V30 29 1 36 37
M  V30 30 1 36 38
M  V30 31 1 36 39
M  V30 32 1 36 40
M  V30 33 1 41 42
M  V30 34 1 41 43
M  V30 35 1 41 44
M  V30 36 1 41 45
M  V30 37 1 46 47
M  V30 38 1 47 48
M  V30 39 1 49 50
M  V30 40 1 50 51
M  V30 41 1 52 53
M  V30 42 1 53 54
M  V30 43 1 55 56
M  V30 44 1 56 57
M  V30 45 1 58 59
M  V30 46 1 59 60
M  V30 47 1 61 62
M  V30 48 1 62 63
M  V30 49 1 64 65
M  V30 50 1 65 66
M  V30 51 1 67 68
M  V30 52 1 68 69
M  V30 53 1 70 71
M  V30 54 1 71 72
M  V30 55 1 73 74
M  V30 56 1 74 75
M  V30 57 1 76 77
M  V30 58 1 77 78
M  V30 59 1 79 80
M  V30 60 1 80 81
M  V30 61 1 82 83
M  V30 62 1 83 84
M  V30 63 1 85 86
M  V30 64 1 86 87
M  V30 65 1 88 89
M  V30 66 1 89 90
M  V30 67 1 91 92
M  V30 68 1 92 93
M  V30 69 1 94 95
M  V30 70 1 95 96
M  V30 71 1 97 98
M  V30 72 1 98 99
M  V30 73 1 2 46
M  V30 74 1 3 64
M  V30 75 1 4 94
M  V30 76 1 5 97
M  V30 77 1 7 73
M  V30 78 1 8 52
M  V30 79 1 9 58
M  V30 80 1 10 49
M  V30 81 1 12 55
M  V30 82 1 13 70
M  V30 83 1 14 91
M  V30 84 1 15 85
M  V30 85 1 17 93
M  V30 86 1 18 82
M  V30 87 1 19 79
M  V30 88 1 20 88
M  V30 89 1 22 75
M  V30 90 1 23 72
M  V30 91 1 24 81
M  V30 92 1 25 76
M  V30 93 1 27 84
M  V30 94 1 28 67
M  V30 95 1 29 96
M  V30 96 1 30 90
M  V30 97 1 32 48
M  V30 98 1 33 69
M  V30 99 1 34 87
M  V30 100 1 35 57
M  V30 101 1 37 78
M  V30 102 1 38 61
M  V30 103 1 39 60
M  V30 104 1 40 99
M  V30 105 1 42 54
M  V30 106 1 43 66
M  V30 107 1 44 63
M  V30 108 1 45 51
M  V30 END BOND
M  V30 END CTAB
M  END

$$$$
