
     RDKit          3D

  0  0  0  0  0  0  0  0  0  0999 V3000
M  V30 BEGIN CTAB
M  V30 COUNTS 99 108 0 0 0
M  V30 BEGIN ATOM
M  V30 1 Pd 1.2309 -2.6418 -0.7898 0
M  V30 2 Pb 0.6363 -3.4197 -0.5818 0
M  V30 3 Pb 0.8397 -2.1623 -0.0022 0
M  V30 4 Pb 1.5969 -3.1121 -1.5925 0
M  V30 5 Pb 1.7686 -1.8399 -1.0601 0
M  V30 6 Pd 3.0303 0.3871 7.6318 0
M  V30 7 Pb 2.6337 1.1725 7.1536 0
M  V30 8 Pb 2.1254 -0.0613 7.6879 0
M  V30 9 Pb 3.9369 0.7152 7.3771 0
M  V30 10 Pb 3.4281 -0.4019 8.0946 0
M  V30 11 Pd -5.5819 2.7425 -1.4409 0
M  V30 12 Pb -5.8640 2.0282 -0.7998 0
M  V30 13 Pb -5.0999 3.2375 -0.7213 0
M  V30 14 Pb -5.2493 3.4194 -2.0990 0
M  V30 15 Pb -6.0347 2.2023 -2.1504 0
M  V30 16 Pd -0.8609 3.3442 -4.0704 0
M  V30 17 Pb -1.7106 3.8676 -3.9682 0
M  V30 18 Pb -1.3420 2.6990 -4.6646 0
M  V30 19 Pb -0.3557 4.0157 -3.5221 0
M  V30 20 Pb -0.0179 2.8199 -4.2037 0
M  V30 21 Pd 1.3758 4.6259 1.1328 0
M  V30 22 Pb 1.4439 4.3901 2.1049 0
M  V30 23 Pb 0.3849 4.6842 1.2426 0
M  V30 24 Pb 1.2871 4.9136 0.1760 0
M  V30 25 Pb 2.3712 4.5874 1.0244 0
M  V30 26 Pd 0.1137 -1.6649 -5.6554 0
M  V30 27 Pb -0.5892 -1.0065 -5.9218 0
M  V30 28 Pb -0.5230 -2.4147 -5.8314 0
M  V30 29 Pb 0.7896 -2.3247 -5.3289 0
M  V30 30 Pb 0.7268 -0.9063 -5.4311 0
M  V30 31 Pd -5.6261 -4.2241 -2.2588 0
M  V30 32 Pb -4.9637 -4.7509 -1.7277 0
M  V30 33 Pb -5.2133 -4.5739 -3.0965 0
M  V30 34 Pb -6.1691 -3.5741 -2.7888 0
M  V30 35 Pb -5.9443 -3.7478 -1.4406 0
M  V30 36 Pd 5.2205 0.7848 0.9265 0
M  V30 37 Pb 5.2420 1.7794 0.8276 0
M  V30 38 Pb 5.1345 -0.2062 1.0312 0
M  V30 39 Pb 5.6688 0.8822 1.8161 0
M  V30 40 Pb 4.7122 0.6974 0.0725 0
M  V30 41 Pd 0.9643 -3.4987 4.5929 0
M  V30 42 Pb 0.5531 -3.0125 5.3785 0
M  V30 43 Pb 0.5569 -2.8390 3.9597 0
M  V30 44 Pb 1.5449 -3.8221 3.8503 0
M  V30 45 Pb 1.4221 -4.1136 5.2311 0
M  V30 46 Ag 2.3548 1.7709 6.7949 0
M  V30 47 Fe 1.9232 2.9743 4.7906 0
M  V30 48 Ag 1.4468 4.2550 2.8453 0
M  V30 49 Ag 0.1356 -3.9643 -0.4534 0
M  V30 50 Fe -2.1092 -4.6432 -0.8297 0
M  V30 51 Ag -4.3862 -5.0581 -1.3622 0
M  V30 52 Ag -6.3602 1.7109 -2.6144 0
M  V30 53 Fe -6.5477 -0.6209 -3.0221 0
M  V30 54 Ag -6.4936 -2.9922 -3.1314 0
M  V30 55 Ag 3.6255 -1.0801 8.3235 0
M  V30 56 Fe 3.0026 -3.1589 7.4086 0
M  V30 57 Ag 1.8301 -4.3948 5.7831 0
M  V30 58 Ag -6.0607 1.4311 -0.3904 0
M  V30 59 Fe -6.1728 -0.9395 -0.4642 0
M  V30 60 Ag -6.1392 -3.2742 -0.8944 0
M  V30 61 Ag 4.5779 0.8940 7.0367 0
M  V30 62 Fe 5.4280 0.9952 4.8227 0
M  V30 63 Ag 5.9456 0.9902 2.5056 0
M  V30 64 Ag 4.9881 -0.9398 1.0886 0
M  V30 65 Fe 3.6006 -2.5693 2.1146 0
M  V30 66 Ag 2.0670 -3.9162 3.3248 0
M  V30 67 Ag -1.0253 -2.9650 -5.9083 0
M  V30 68 Fe -2.9392 -3.9704 -4.9310 0
M  V30 69 Ag -4.8247 -4.7381 -3.7131 0
M  V30 70 Ag -4.7029 3.5988 -0.2009 0
M  V30 71 Fe -2.5457 4.1843 0.5952 0
M  V30 72 Ag -0.3571 4.7301 1.3318 0
M  V30 73 Ba 3.1168 4.5781 0.9264 0
M  V30 74 Ga 4.1741 3.5506 0.8492 0
M  V30 75 Ba 5.2352 2.5272 0.7715 0
M  V30 76 Ba 0.0463 4.5397 -3.1599 0
M  V30 77 Ga 0.6141 4.8074 -1.8207 0
M  V30 78 Ba 1.2262 5.1780 -0.5264 0
M  V30 79 Ba -1.6863 2.2268 -5.1354 0
M  V30 80 Ga -1.4153 0.8593 -5.6167 0
M  V30 81 Ba -1.1256 -0.5091 -6.0843 0
M  V30 82 Ba 1.4630 -0.4392 7.6725 0
M  V30 83 Ga 0.8848 -1.5232 6.8243 0
M  V30 84 Ba 0.3071 -2.6072 5.9759 0
M  V30 85 Ba 0.6097 2.4241 -4.3238 0
M  V30 86 Ga 0.8981 1.0500 -4.7817 0
M  V30 87 Ba 1.1661 -0.3278 -5.2409 0
M  V30 88 Ba -4.9636 3.9292 -2.5710 0
M  V30 89 Ga -3.6586 4.0886 -3.2464 0
M  V30 90 Ba -2.3555 4.2540 -3.9241 0
M  V30 91 Ba 1.8662 -3.4259 -2.2179 0
M  V30 92 Ga 1.5977 -3.1569 -3.6423 0
M  V30 93 Ba 1.2690 -2.8228 -5.0400 0
M  V30 94 Ba 2.1500 -1.2505 -1.3321 0
M  V30 95 Ga 3.2263 -0.3272 -0.9238 0
M  V30 96 Ba 4.2996 0.6124 -0.5455 0
M  V30 97 Ba 0.5122 -1.8206 0.5818 0
M  V30 98 Ga 0.4020 -2.0773 2.0323 0
M  V30 99 Ba 0.2857 -2.3248 3.4839 0
M  V30 END ATOM
M  V30 BEGIN BOND
M  V30 1 1 1 2
M  V30 2 1 1 3
M  V30 3 1 1 4
M  V30 4 1 1 5
M  V30 5 1 6 7
M  V30 6 1 6 8
M  V30 7 1 6 9
M  V30 8 1 6 10
M  V30 9 1 11 12
M  V30 10 1 11 13
M  V30 11 1 11 14
M  V30 12 1 11 15
M  V30 13 1 16 17
M  V30 14 1 16 18
M  V30 15 1 16 19
M  V30 16 1 16 20
M  V30 17 1 21 22
M  V30 18 1 21 23
M  V30 19 1 21 24
M  V30 20 1 21 25
M  V30 21 1 26 27
M  V30 22 1 26 28
M  V30 23 1 26 29
M  V30 24 1 26 30
M  V30 25 1 31 32
M  V30 26 1 31 33
M  V30 27 1 31 34
M  V30 28 1 31 35
M  V30 29 1 36 37
M  V30 30 1 36 38
M  V30 31 1 36 39
M  V30 32 1 36 40
M  V30 33 1 41 42
M  V30 34 1 41 43
M  V30 35 1 41 44
M  V30 36 1 41 45
M  V30 37 1 46 47
M  V30 38 1 47 48
M  V30 39 1 49 50
M  V30 40 1 50 51
M  V30 41 1 52 53
M  V30 42 1 53 54
M  V30 43 1 55 56
M  V30 44 1 56 57
M  V30 45 1 58 59
M  V30 46 1 59 60
M  V30 47 1 61 62
M  V30 48 1 62 63
M  V30 49 1 64 65
M  V30 50 1 65 66
M  V30 51 1 67 68
M  V30 52 1 68 69
M  V30 53 1 70 71
M  V30 54 1 71 72
M  V30 55 1 73 74
M  V30 56 1 74 75
M  V30 57 1 76 77
M  V30 58 1 77 78
M  V30 59 1 79 80
M  V30 60 1 80 81
M  V30 61 1 82 83
M  V30 62 1 83 84
M  V30 63 1 85 86
M  V30 64 1 86 87
M  V30 65 1 88 89
M  V30 66 1 89 90
M  V30 67 1 91 92
M  V30 68 1 92 93
M  V30 69 1 94 95
M  V30 70 1 95 96
M  V30 71 1 97 98
M  V30 72 1 98 99
M  V30 73 1 2 49
M  V30 74 1 3 97
M  V30 75 1 4 91
M  V30 76 1 5 94
M  V30 77 1 7 46
M  V30 78 1 8 82
M  V30 79 1 9 61
M  V30 80 1 10 55
M  V30 81 1 12 58
M  V30 82 1 13 70
M  V30 83 1 14 88
M  V30 84 1 15 52
M  V30 85 1 17 90
M  V30 86 1 18 79
M  V30 87 1 19 76
M  V30 88 1 20 85
M  V30 89 1 22 48
M  V30 90 1 23 72
M  V30 91 1 24 78
M  V30 92 1 25 73
M  V30 93 1 27 81
M  V30 94 1 28 67
M  V30 95 1 29 93
M  V30 96 1 30 87
M  V30 97 1 32 51
M  V30 98 1 33 69
M  V30 99 1 34 54
M  V30 100 1 35 60
M  V30 101 1 37 75
M  V30 102 1 38 64
M  V30 103 1 39 63
M  V30 104 1 40 96
M  V30 105 1 42 84
M  V30 106 1 43 99
M  V30 107 1 44 66
M  V30 108 1 45 57
M  V30 END BOND
M  V30 END CTAB
M  END

$$$$
