
     RDKit          3D

  0  0  0  0  0  0  0  0  0  0999 V3000
M  V30 BEGIN CTAB
M  V30 COUNTS 99 108 0 0 0
M  V30 BEGIN ATOM
M  V30 1 Pd -3.1744 2.4388 1.0567 0
M  V30 2 Pb -3.0981 3.3762 0.7075 0
M  V30 3 Pb -2.5201 2.1299 0.3659 0
M  V30 4 Pb -3.8205 2.7080 1.7726 0
M  V30 5 Pb -3.2604 1.4941 1.3680 0
M  V30 6 Pd -0.6063 -2.5354 -7.5183 0
M  V30 7 Pb 0.2369 -2.9782 -7.2100 0
M  V30 8 Pb -1.4723 -2.0955 -7.7465 0
M  V30 9 Pb -1.0956 -3.4014 -7.4749 0
M  V30 10 Pb -0.2050 -1.6287 -7.3978 0
M  V30 11 Pd 6.2317 1.9188 0.7033 0
M  V30 12 Pb 6.0483 2.7308 1.2538 0
M  V30 13 Pb 6.3788 1.0940 0.1568 0
M  V30 14 Pb 6.5984 1.4410 1.5002 0
M  V30 15 Pb 5.7416 2.3797 -0.0393 0
M  V30 16 Pd 2.9184 -1.9029 5.8267 0
M  V30 17 Pb 3.8763 -1.6680 5.6641 0
M  V30 18 Pb 2.7868 -1.0765 6.3703 0
M  V30 19 Pb 3.0362 -2.7126 5.2509 0
M  V30 20 Pb 1.9330 -2.0584 5.9300 0
M  V30 21 Pd 3.3777 -4.8978 -1.3440 0
M  V30 22 Pb 3.2874 -4.8259 -2.3396 0
M  V30 23 Pb 4.1659 -4.2832 -1.3851 0
M  V30 24 Pb 3.4595 -4.9751 -0.3489 0
M  V30 25 Pb 2.5614 -5.4720 -1.2917 0
M  V30 26 Pd -2.5572 2.7237 6.2624 0
M  V30 27 Pb -1.6871 2.6760 6.7487 0
M  V30 28 Pb -2.4599 3.7104 6.1550 0
M  V30 29 Pb -3.3927 2.7759 5.7140 0
M  V30 30 Pb -2.5632 1.7216 6.2894 0
M  V30 31 Pd 0.5955 6.3483 1.0137 0
M  V30 32 Pb -0.2933 6.2607 0.5620 0
M  V30 33 Pb 0.1223 6.6537 1.8375 0
M  V30 34 Pb 1.0938 5.9719 0.2293 0
M  V30 35 Pb 1.4719 6.3669 1.4902 0
M  V30 36 Pd -4.0015 -4.3635 -1.7666 0
M  V30 37 Pb -3.3515 -5.0782 -1.5157 0
M  V30 38 Pb -4.5620 -3.5784 -2.0402 0
M  V30 39 Pb -4.0144 -4.7476 -2.6882 0
M  V30 40 Pb -3.9371 -3.9547 -0.8588 0
M  V30 41 Pd -2.7767 0.2756 -4.2652 0
M  V30 42 Pb -3.2175 0.0525 -5.1331 0
M  V30 43 Pb -2.2953 0.5108 -3.4184 0
M  V30 44 Pb -3.5797 -0.0770 -3.7755 0
M  V30 45 Pb -1.9683 0.5642 -4.7858 0
M  V30 46 Ag 0.8505 -3.3153 -6.9380 0
M  V30 47 Fe 2.0552 -4.0466 -5.0239 0
M  V30 48 Ag 3.2318 -4.7645 -3.0873 0
M  V30 49 Ag 1.9272 -5.8650 -1.2206 0
M  V30 50 Fe -0.4453 -5.8182 -1.2740 0
M  V30 51 Ag -2.8033 -5.5682 -1.3770 0
M  V30 52 Ag 3.1534 -3.3017 4.8007 0
M  V30 53 Fe 3.3218 -4.1783 2.5985 0
M  V30 54 Ag 3.4916 -5.0572 0.3974 0
M  V30 55 Ag 2.6064 -0.4566 6.7473 0
M  V30 56 Fe 0.8773 1.1445 7.0157 0
M  V30 57 Ag -1.0141 2.5749 7.0580 0
M  V30 58 Ag 5.2956 2.7598 -0.5113 0
M  V30 59 Fe 3.4155 4.2162 -0.5500 0
M  V30 60 Ag 1.5378 5.6526 -0.2882 0
M  V30 61 Ag 5.8419 3.3498 1.6190 0
M  V30 62 Fe 4.0712 4.9141 1.8271 0
M  V30 63 Ag 2.1446 6.2973 1.8087 0
M  V30 64 Ag 1.1835 -2.0683 6.0062 0
M  V30 65 Fe -0.7267 -0.6589 6.1640 0
M  V30 66 Ag -2.4486 0.9775 6.2968 0
M  V30 67 Ag 6.7761 1.0569 2.1179 0
M  V30 68 Fe 5.8084 -0.2250 3.8658 0
M  V30 69 Ag 4.5689 -1.4520 5.4761 0
M  V30 70 Ag -1.5388 -3.9768 -7.3078 0
M  V30 71 Fe -2.8198 -4.6810 -5.4420 0
M  V30 72 Ag -3.9385 -5.0227 -3.3799 0
M  V30 73 Ag -3.3333 0.7746 1.5598 0
M  V30 74 Fe -3.6068 -1.4470 0.7741 0
M  V30 75 Ag -3.8774 -3.5886 -0.2098 0
M  V30 76 Ag -2.3380 4.4268 5.9825 0
M  V30 77 Fe -1.3314 5.7704 4.3079 0
M  V30 78 Ag -0.2415 6.8042 2.4731 0
M  V30 79 Ag 6.4796 0.4540 -0.2215 0
M  V30 80 Fe 5.6359 -1.6776 -0.8434 0
M  V30 81 Ag 4.7348 -3.7959 -1.4290 0
M  V30 82 Ba -3.0384 4.0633 0.4043 0
M  V30 83 Ga -2.0078 5.1209 0.3381 0
M  V30 84 Ba -0.9807 6.1819 0.2698 0
M  V30 85 Ba 0.0056 -0.9323 -7.2175 0
M  V30 86 Ga -0.6305 -0.0433 -6.2230 0
M  V30 87 Ba -1.3642 0.7354 -5.2031 0
M  V30 88 Ba -2.1343 -1.7605 -7.8382 0
M  V30 89 Ga -2.8747 -0.9294 -6.8756 0
M  V30 90 Ba -3.4876 -0.1214 -5.8092 0
M  V30 91 Ba -4.3007 2.8502 2.3329 0
M  V30 92 Ga -4.1686 2.8636 3.8039 0
M  V30 93 Ba -3.9917 2.8675 5.2703 0
M  V30 94 Ba -4.9400 -2.9493 -2.2092 0
M  V30 95 Ga -4.5691 -1.6593 -2.8342 0
M  V30 96 Ba -4.1994 -0.3684 -3.4581 0
M  V30 97 Ba -2.0124 1.8708 -0.1222 0
M  V30 98 Ga -1.9933 1.2898 -1.4798 0
M  V30 99 Ba -1.8696 0.6994 -2.8276 0
M  V30 END ATOM
M  V30 BEGIN BOND
M  V30 1 1 1 2
M  V30 2 1 1 3
M  V30 3 1 1 4
M  V30 4 1 1 5
M  V30 5 1 6 7
M  V30 6 1 6 8
M  V30 7 1 6 9
M  V30 8 1 6 10
M  V30 9 1 11 12
M  V30 10 1 11 13
M  V30 11 1 11 14
M  V30 12 1 11 15
M  V30 13 1 16 17
M  V30 14 1 16 18
M  V30 15 1 16 19
M  V30 16 1 16 20
M  V30 17 1 21 22
M  V30 18 1 21 23
M  V30 19 1 21 24
M  V30 20 1 21 25
M  V30 21 1 26 27
M  V30 22 1 26 28
M  V30 23 1 26 29
M  V30 24 1 26 30
M  V30 25 1 31 32
M  V30 26 1 31 33
M  V30 27 1 31 34
M  V30 28 1 31 35
M  V30 29 1 36 37
M  V30 30 1 36 38
M  V30 31 1 36 39
M  V30 32 1 36 40
M  V30 33 1 41 42
M  V30 34 1 41 43
M  V30 35 1 41 44
M  V30 36 1 41 45
M  V30 37 1 46 47
M  V30 38 1 47 48
M  V30 39 1 49 50
M  V30 40 1 50 51
M  V30 41 1 52 53
M  V30 42 1 53 54
M  V30 43 1 55 56
M  V30 44 1 56 57
M  V30 45 1 58 59
M  V30 46 1 59 60
M  V30 47 1 61 62
M  V30 48 1 62 63
M  V30 49 1 64 65
M  V30 50 1 65 66
M  V30 51 1 67 68
M  V30 52 1 68 69
M  V30 53 1 70 71
M  V30 54 1 71 72
M  V30 55 1 73 74
M  V30 56 1 74 75
M  V30 57 1 76 77
M  V30 58 1 77 78
M  V30 59 1 79 80
M  V30 60 1 80 81
M  V30 61 1 82 83
M  V30 62 1 83 84
M  V30 63 1 85 86
M  V30 64 1 86 87
M  V30 65 1 88 89
M  V30 66 1 89 90
M  V30 67 1 91 92
M  V30 68 1 92 93
M  V30 69 1 94 95
M  V30 70 1 95 96
M  V30 71 1 97 98
M  V30 72 1 98 99
M  V30 73 1 2 82
M  V30 74 1 3 97
M  V30 75 1 4 91
M  V30 76 1 5 73
M  V30 77 1 7 46
M  V30 78 1 8 88
M  V30 79 1 9 70
M  V30 80 1 10 85
M  V30 81 1 12 61
M  V30 82 1 13 79
M  V30 83 1 14 67
M  V30 84 1 15 58
M  V30 85 1 17 69
M  V30 86 1 18 55
M  V30 87 1 19 52
M  V30 88 1 20 64
M  V30 89 1 22 48
M  V30 90 1 23 81
M  V30 91 1 24 54
M  V30 92 1 25 49
M  V30 93 1 27 57
M  V30 94 1 28 76
M  V30 95 1 29 93
M  V30 96 1 30 66
M  V30 97 1 32 84
M  V30 98 1 33 78
M  V30 99 1 34 60
M  V30 100 1 35 63
M  V30 101 1 37 51
M  V30 102 1 38 94
M  V30 103 1 39 72
M  V30 104 1 40 75
M  V30 105 1 42 90
M  V30 106 1 43 99
M  V30 107 1 44 96
M  V30 108 1 45 87
M  V30 END BOND
M  V30 END CTAB
M  END

$$$$
