
     RDKit          3D

  0  0  0  0  0  0  0  0  0  0999 V3000
M  V30 BEGIN CTAB
M  V30 COUNTS 99 108 0 0 0
M  V30 BEGIN ATOM
M  V30 1 Pd -5.9962 -0.9768 -2.4265 0
M  V30 2 Pb -6.0202 -0.4172 -3.2541 0
M  V30 3 Pb -6.1632 -0.1556 -1.8828 0
M  V30 4 Pb -5.8746 -1.5482 -1.5880 0
M  V30 5 Pb -5.9681 -1.7887 -2.9929 0
M  V30 6 Pd -3.4692 -5.7283 0.3504 0
M  V30 7 Pb -2.9362 -6.5545 0.2411 0
M  V30 8 Pb -4.0342 -4.8783 0.3968 0
M  V30 9 Pb -3.9709 -6.0194 -0.4525 0
M  V30 10 Pb -2.8804 -5.4373 1.1377 0
M  V30 11 Pd 2.6921 0.4775 -3.5387 0
M  V30 12 Pb 2.7184 -0.5197 -3.4162 0
M  V30 13 Pb 3.6476 0.5221 -3.2634 0
M  V30 14 Pb 2.7210 1.4623 -3.6203 0
M  V30 15 Pb 1.7067 0.4639 -3.8243 0
M  V30 16 Pd 2.0307 -5.1055 2.8687 0
M  V30 17 Pb 3.0101 -5.2066 2.7209 0
M  V30 18 Pb 2.2005 -4.3938 3.5564 0
M  V30 19 Pb 1.9203 -5.8961 2.2855 0
M  V30 20 Pb 1.0131 -5.0034 2.9348 0
M  V30 21 Pd -4.0955 6.0612 -0.3897 0
M  V30 22 Pb -4.2470 6.1647 -1.3736 0
M  V30 23 Pb -3.9614 5.9504 0.5896 0
M  V30 24 Pb -4.9033 5.4811 -0.3367 0
M  V30 25 Pb -3.1929 6.4990 -0.4117 0
M  V30 26 Pd 5.6478 -2.4821 -0.2887 0
M  V30 27 Pb 5.5429 -3.3265 0.2352 0
M  V30 28 Pb 5.8316 -1.6504 -0.8038 0
M  V30 29 Pb 6.2282 -2.1598 0.4543 0
M  V30 30 Pb 4.9941 -2.7607 -0.9994 0
M  V30 31 Pd 4.3274 0.1134 4.2718 0
M  V30 32 Pb 4.6120 1.0130 3.9303 0
M  V30 33 Pb 3.6034 0.5542 4.7967 0
M  V30 34 Pb 5.1211 -0.3033 3.8248 0
M  V30 35 Pb 3.9784 -0.7687 4.5976 0
M  V30 36 Pd 1.6338 4.6368 3.6998 0
M  V30 37 Pb 1.6794 3.9859 4.4523 0
M  V30 38 Pb 2.5836 4.4182 3.4645 0
M  V30 39 Pb 1.5115 5.2550 2.9171 0
M  V30 40 Pb 0.6827 4.8187 3.9255 0
M  V30 41 Pd -2.8142 3.0766 -4.5418 0
M  V30 42 Pb -3.4196 3.8699 -4.4981 0
M  V30 43 Pb -3.5971 2.4843 -4.7498 0
M  V30 44 Pb -2.1607 2.2861 -4.5483 0
M  V30 45 Pb -2.0709 3.7110 -4.3940 0
M  V30 46 Ag -3.8004 5.8655 1.3111 0
M  V30 47 Fe -2.0218 5.4189 2.8074 0
M  V30 48 Ag -0.0426 4.9540 4.0191 0
M  V30 49 Ag -2.4439 -7.0956 0.1643 0
M  V30 50 Fe -0.2006 -7.2587 0.8362 0
M  V30 51 Ag 1.7542 -6.4921 1.8865 0
M  V30 52 Ag -2.4767 6.7252 -0.3411 0
M  V30 53 Fe -0.5051 6.3114 0.9288 0
M  V30 54 Ag 1.3127 5.7027 2.3420 0
M  V30 55 Ag 2.6502 2.1931 -3.6656 0
M  V30 56 Fe 0.8015 3.6085 -3.9673 0
M  V30 57 Ag -1.4655 4.1192 -4.3036 0
M  V30 58 Ag -5.9690 -2.4531 -3.3130 0
M  V30 59 Fe -5.2775 -4.5817 -2.5955 0
M  V30 60 Ag -4.3091 -6.1146 -1.1004 0
M  V30 61 Ag -6.3598 0.4730 -1.5250 0
M  V30 62 Fe -5.9500 2.7201 -0.8826 0
M  V30 63 Ag -5.4338 4.9584 -0.2888 0
M  V30 64 Ba 4.3585 0.5720 -3.0447 0
M  V30 65 Ga 5.1877 -0.2199 -2.1277 0
M  V30 66 Ba 5.9814 -1.0391 -1.2033 0
M  V30 67 Ba 3.0971 0.9002 5.2235 0
M  V30 68 Ga 2.3809 2.1803 5.1252 0
M  V30 69 Ba 1.6837 3.4672 4.9886 0
M  V30 70 Ba -4.4061 6.2131 -2.1060 0
M  V30 71 Ga -4.1263 5.3682 -3.2824 0
M  V30 72 Ba -3.8238 4.4973 -4.4340 0
M  V30 73 Ba 2.3680 -3.9389 4.1343 0
M  V30 74 Ga 3.0236 -2.6479 4.4396 0
M  V30 75 Ba 3.6518 -1.3840 4.8843 0
M  V30 76 Ba -2.4627 -5.2138 1.7506 0
M  V30 77 Ga -1.0668 -5.0995 2.2983 0
M  V30 78 Ba 0.2474 -4.9120 3.0050 0
M  V30 79 Ba 6.6136 -1.9240 1.0486 0
M  V30 80 Ga 6.1863 -1.2468 2.2864 0
M  V30 81 Ba 5.7561 -0.5712 3.5240 0
M  V30 82 Ba 0.9707 0.4012 -4.0591 0
M  V30 83 Ga -0.3277 1.1284 -4.2756 0
M  V30 84 Ba -1.7049 1.6597 -4.5627 0
M  V30 85 Ba 3.7261 -5.3082 2.5373 0
M  V30 86 Ga 4.6331 -4.6153 1.6070 0
M  V30 87 Ba 5.5480 -3.9327 0.6769 0
M  V30 88 Ba -5.7803 -1.9401 -0.9304 0
M  V30 89 Ga -5.0940 -3.1252 -0.3177 0
M  V30 90 Ba -4.4895 -4.2587 0.4574 0
M  V30 91 Ba 2.7856 -1.2644 -3.3079 0
M  V30 92 Ga 3.6273 -2.1049 -2.4225 0
M  V30 93 Ba 4.4793 -2.9244 -1.5274 0
M  V30 94 Ba 4.7961 1.6946 3.6669 0
M  V30 95 Ga 4.0572 2.9634 3.4844 0
M  V30 96 Ba 3.2938 4.2193 3.3132 0
M  V30 97 Ba -5.9969 -0.0052 -3.8799 0
M  V30 98 Ga -5.0906 1.0421 -4.3937 0
M  V30 99 Ba -4.2090 2.0908 -4.9462 0
M  V30 END ATOM
M  V30 BEGIN BOND
M  V30 1 1 1 2
M  V30 2 1 1 3
M  V30 3 1 1 4
M  V30 4 1 1 5
M  V30 5 1 6 7
M  V30 6 1 6 8
M  V30 7 1 6 9
M  V30 8 1 6 10
M  V30 9 1 11 12
M  V30 10 1 11 13
M  V30 11 1 11 14
M  V30 12 1 11 15
M  V30 13 1 16 17
M  V30 14 1 16 18
M  V30 15 1 16 19
M  V30 16 1 16 20
M  V30 17 1 21 22
M  V30 18 1 21 23
M  V30 19 1 21 24
M  V30 20 1 21 25
M  V30 21 1 26 27
M  V30 22 1 26 28
M  V30 23 1 26 29
M  V30 24 1 26 30
M  V30 25 1 31 32
M  V30 26 1 31 33
M  V30 27 1 31 34
M  V30 28 1 31 35
M  V30 29 1 36 37
M  V30 30 1 36 38
M  V30 31 1 36 39
M  V30 32 1 36 40
M  V30 33 1 41 42
M  V30 34 1 41 43
M  V30 35 1 41 44
M  V30 36 1 41 45
M  V30 37 1 46 47
M  V30 38 1 47 48
M  V30 39 1 49 50
M  V30 40 1 50 51
M  V30 41 1 52 53
M  V30 42 1 53 54
M  V30 43 1 55 56
M  V30 44 1 56 57
M  V30 45 1 58 59
M  V30 46 1 59 60
M  V30 47 1 61 62
M  V30 48 1 62 63
M  V30 49 1 64 65
M  V30 50 1 65 66
M  V30 51 1 67 68
M  V30 52 1 68 69
M  V30 53 1 70 71
M  V30 54 1 71 72
M  V30 55 1 73 74
M  V30 56 1 74 75
M  V30 57 1 76 77
M  V30 58 1 77 78
M  V30 59 1 79 80
M  V30 60 1 80 81
M  V30 61 1 82 83
M  V30 62 1 83 84
M  V30 63 1 85 86
M  V30 64 1 86 87
M  V30 65 1 88 89
M  V30 66 1 89 90
M  V30 67 1 91 92
M  V30 68 1 92 93
M  V30 69 1 94 95
M  V30 70 1 95 96
M  V30 71 1 97 98
M  V30 72 1 98 99
M  V30 73 1 2 97
M  V30 74 1 3 61
M  V30 75 1 4 88
M  V30 76 1 5 58
M  V30 77 1 7 49
M  V30 78 1 8 90
M  V30 79 1 9 60
M  V30 80 1 10 76
M  V30 81 1 12 91
M  V30 82 1 13 64
M  V30 83 1 14 55
M  V30 84 1 15 82
M  V30 85 1 17 85
M  V30 86 1 18 73
M  V30 87 1 19 51
M  V30 88 1 20 78
M  V30 89 1 22 70
M  V30 90 1 23 46
M  V30 91 1 24 63
M  V30 92 1 25 52
M  V30 93 1 27 87
M  V30 94 1 28 66
M  V30 95 1 29 79
M  V30 96 1 30 93
M  V30 97 1 32 94
M  V30 98 1 33 67
M  V30 99 1 34 81
M  V30 100 1 35 75
M  V30 101 1 37 69
M  V30 102 1 38 96
M  V30 103 1 39 54
M  V30 104 1 40 48
M  V30 105 1 42 72
M  V30 106 1 43 99
M  V30 107 1 44 84
M  V30 108 1 45 57
M  V30 END BOND
M  V30 END CTAB
M  END

$$$$
