
     RDKit          3D

  0  0  0  0  0  0  0  0  0  0999 V3000
M  V30 BEGIN CTAB
M  V30 COUNTS 99 108 0 0 0
M  V30 BEGIN ATOM
M  V30 1 Pd 1.4447 -1.4952 4.8183 0
M  V30 2 Pb 1.5655 -0.6701 5.3729 0
M  V30 3 Pb 1.3057 -2.3438 4.3027 0
M  V30 4 Pb 0.5258 -1.6155 5.1932 0
M  V30 5 Pb 2.3445 -1.3271 4.4115 0
M  V30 6 Pd 2.0590 -6.1516 -4.7226 0
M  V30 7 Pb 1.5033 -5.3409 -4.9126 0
M  V30 8 Pb 1.2792 -6.6154 -4.2979 0
M  V30 9 Pb 2.8803 -5.6687 -5.0188 0
M  V30 10 Pb 2.6180 -6.9469 -4.4979 0
M  V30 11 Pd -1.1951 5.8943 -1.8499 0
M  V30 12 Pb -1.7306 5.9810 -1.0128 0
M  V30 13 Pb -0.6459 5.7900 -2.6795 0
M  V30 14 Pb -1.9611 6.2718 -2.3704 0
M  V30 15 Pb -0.4643 5.5027 -1.2883 0
M  V30 16 Pd -5.8660 3.9818 -2.0046 0
M  V30 17 Pb -5.5877 4.8518 -2.4112 0
M  V30 18 Pb -6.0832 3.1098 -1.5666 0
M  V30 19 Pb -5.5395 3.5261 -2.8314 0
M  V30 20 Pb -6.1229 4.4162 -1.1403 0
M  V30 21 Pd 0.6191 1.6923 -4.9286 0
M  V30 22 Pb 0.5181 0.6970 -4.9956 0
M  V30 23 Pb 0.6951 2.6906 -4.9037 0
M  V30 24 Pb -0.3509 1.7695 -5.1576 0
M  V30 25 Pb 1.5776 1.6340 -4.6433 0
M  V30 26 Pd -5.2877 1.7489 4.8234 0
M  V30 27 Pb -5.6120 1.2906 3.9962 0
M  V30 28 Pb -4.9079 2.2270 5.6150 0
M  V30 29 Pb -4.8623 0.9115 5.1636 0
M  V30 30 Pb -5.6511 2.5945 4.4301 0
M  V30 31 Pd -0.6054 3.6173 5.1129 0
M  V30 32 Pb 0.0577 3.0733 5.6277 0
M  V30 33 Pb -1.2635 3.5787 5.8648 0
M  V30 34 Pb 0.0112 3.6669 4.3253 0
M  V30 35 Pb -1.2569 4.1522 4.5796 0
M  V30 36 Pd 6.3821 -1.6988 -1.0961 0
M  V30 37 Pb 6.1284 -0.8523 -1.5628 0
M  V30 38 Pb 6.5508 -2.5730 -0.6436 0
M  V30 39 Pb 6.4364 -2.1311 -1.9948 0
M  V30 40 Pb 6.2447 -1.3014 -0.1895 0
M  V30 41 Pd 2.4447 -7.6407 -0.1692 0
M  V30 42 Pb 1.5873 -7.8049 -0.6606 0
M  V30 43 Pb 1.9654 -7.1248 0.5423 0
M  V30 44 Pb 3.3245 -7.3835 0.2249 0
M  V30 45 Pb 2.9228 -8.1236 -0.8998 0
M  V30 46 Ag 1.0850 -4.7311 -5.0438 0
M  V30 47 Fe 0.7926 -2.3719 -5.0400 0
M  V30 48 Ag 0.3646 -0.0341 -5.0883 0
M  V30 49 Ag 2.2874 1.6471 -4.3956 0
M  V30 50 Fe 4.1026 0.7082 -3.1833 0
M  V30 51 Ag 5.8959 -0.2638 -1.9648 0
M  V30 52 Ag -5.2320 3.2089 -3.4362 0
M  V30 53 Fe -3.2017 2.4883 -4.4337 0
M  V30 54 Ag -1.0879 1.8217 -5.2844 0
M  V30 55 Ag -6.2165 2.4951 -1.1587 0
M  V30 56 Fe -6.0816 1.6252 1.0466 0
M  V30 57 Ag -5.8362 1.0268 3.3313 0
M  V30 58 Ag 0.0302 5.2069 -0.8058 0
M  V30 59 Fe 0.3310 4.4433 1.4250 0
M  V30 60 Ag 0.4113 3.7357 3.6928 0
M  V30 61 Ag -2.0877 6.0119 -0.3570 0
M  V30 62 Fe -2.0044 5.3341 1.9141 0
M  V30 63 Ag -1.7076 4.5443 4.1305 0
M  V30 64 Ag -6.2806 4.6597 -0.4476 0
M  V30 65 Fe -6.1517 4.0516 1.8460 0
M  V30 66 Ag -5.9000 3.1901 4.0463 0
M  V30 67 Ag 3.5190 -5.2968 -5.1320 0
M  V30 68 Fe 5.0548 -3.8664 -4.0259 0
M  V30 69 Ag 6.3945 -2.4555 -2.6681 0
M  V30 70 Ag -0.1798 -1.6843 5.4367 0
M  V30 71 Fe -2.3626 -0.7514 5.4729 0
M  V30 72 Ag -4.4826 0.3155 5.4115 0
M  V30 73 Ag 3.0082 -1.1359 4.1143 0
M  V30 74 Fe 4.5690 -1.0925 2.3232 0
M  V30 75 Ag 6.1057 -1.0735 0.5110 0
M  V30 76 Ag 6.5958 -3.2325 -0.2923 0
M  V30 77 Fe 5.4097 -5.2362 0.1629 0
M  V30 78 Ag 3.9906 -7.1178 0.4361 0
M  V30 79 Ag 1.1319 -2.9966 3.9705 0
M  V30 80 Fe 1.4309 -4.8360 2.4946 0
M  V30 81 Ag 1.6028 -6.7299 1.0683 0
M  V30 82 Ba 1.6630 -0.0656 5.8084 0
M  V30 83 Ga 1.1048 1.2982 5.8959 0
M  V30 84 Ba 0.5631 2.6671 6.0052 0
M  V30 85 Ba 3.0204 -7.5337 -4.2690 0
M  V30 86 Ga 3.1897 -8.0521 -2.9034 0
M  V30 87 Ba 3.2560 -8.4434 -1.4875 0
M  V30 88 Ba 0.7476 -6.9701 -3.9013 0
M  V30 89 Ga 0.7959 -7.4546 -2.5052 0
M  V30 90 Ba 0.9846 -7.8851 -1.1034 0
M  V30 91 Ba -2.5714 6.5384 -2.7156 0
M  V30 92 Ga -3.9615 6.0466 -2.7503 0
M  V30 93 Ba -5.3220 5.4773 -2.7279 0
M  V30 94 Ba -4.5663 2.5598 6.1937 0
M  V30 95 Ga -3.1916 3.0742 6.3388 0
M  V30 96 Ba -1.8002 3.5611 6.3886 0
M  V30 97 Ba -0.2246 5.7084 -3.2949 0
M  V30 98 Ga 0.2587 4.5652 -4.0940 0
M  V30 99 Ba 0.7551 3.4396 -4.9099 0
M  V30 END ATOM
M  V30 BEGIN BOND
M  V30 1 1 1 2
M  V30 2 1 1 3
M  V30 3 1 1 4
M  V30 4 1 1 5
M  V30 5 1 6 7
M  V30 6 1 6 8
M  V30 7 1 6 9
M  V30 8 1 6 10
M  V30 9 1 11 12
M  V30 10 1 11 13
M  V30 11 1 11 14
M  V30 12 1 11 15
M  V30 13 1 16 17
M  V30 14 1 16 18
M  V30 15 1 16 19
M  V30 16 1 16 20
M  V30 17 1 21 22
M  V30 18 1 21 23
M  V30 19 1 21 24
M  V30 20 1 21 25
M  V30 21 1 26 27
M  V30 22 1 26 28
M  V30 23 1 26 29
M  V30 24 1 26 30
M  V30 25 1 31 32
M  V30 26 1 31 33
M  V30 27 1 31 34
M  V30 28 1 31 35
M  V30 29 1 36 37
M  V30 30 1 36 38
M  V30 31 1 36 39
M  V30 32 1 36 40
M  V30 33 1 41 42
M  V30 34 1 41 43
M  V30 35 1 41 44
M  V30 36 1 41 45
M  V30 37 1 46 47
M  V30 38 1 47 48
M  V30 39 1 49 50
M  V30 40 1 50 51
M  V30 41 1 52 53
M  V30 42 1 53 54
M  V30 43 1 55 56
M  V30 44 1 56 57
M  V30 45 1 58 59
M  V30 46 1 59 60
M  V30 47 1 61 62
M  V30 48 1 62 63
M  V30 49 1 64 65
M  V30 50 1 65 66
M  V30 51 1 67 68
M  V30 52 1 68 69
M  V30 53 1 70 71
M  V30 54 1 71 72
M  V30 55 1 73 74
M  V30 56 1 74 75
M  V30 57 1 76 77
M  V30 58 1 77 78
M  V30 59 1 79 80
M  V30 60 1 80 81
M  V30 61 1 82 83
M  V30 62 1 83 84
M  V30 63 1 85 86
M  V30 64 1 86 87
M  V30 65 1 88 89
M  V30 66 1 89 90
M  V30 67 1 91 92
M  V30 68 1 92 93
M  V30 69 1 94 95
M  V30 70 1 95 96
M  V30 71 1 97 98
M  V30 72 1 98 99
M  V30 73 1 2 82
M  V30 74 1 3 79
M  V30 75 1 4 70
M  V30 76 1 5 73
M  V30 77 1 7 46
M  V30 78 1 8 88
M  V30 79 1 9 67
M  V30 80 1 10 85
M  V30 81 1 12 61
M  V30 82 1 13 97
M  V30 83 1 14 91
M  V30 84 1 15 58
M  V30 85 1 17 93
M  V30 86 1 18 55
M  V30 87 1 19 52
M  V30 88 1 20 64
M  V30 89 1 22 48
M  V30 90 1 23 99
M  V30 91 1 24 54
M  V30 92 1 25 49
M  V30 93 1 27 57
M  V30 94 1 28 94
M  V30 95 1 29 72
M  V30 96 1 30 66
M  V30 97 1 32 84
M  V30 98 1 33 96
M  V30 99 1 34 60
M  V30 100 1 35 63
M  V30 101 1 37 51
M  V30 102 1 38 76
M  V30 103 1 39 69
M  V30 104 1 40 75
M  V30 105 1 42 90
M  V30 106 1 43 81
M  V30 107 1 44 78
M  V30 108 1 45 87
M  V30 END BOND
M  V30 END CTAB
M  END

$$$$
