
     RDKit          3D

  0  0  0  0  0  0  0  0  0  0999 V3000
M  V30 BEGIN CTAB
M  V30 COUNTS 99 108 0 0 0
M  V30 BEGIN ATOM
M  V30 1 Pd 4.2934 1.7395 -0.6087 0
M  V30 2 Pb 4.0334 2.6939 -0.4549 0
M  V30 3 Pb 4.6408 0.8131 -0.7710 0
M  V30 4 Pb 4.7655 1.6771 0.2750 0
M  V30 5 Pb 3.8107 1.8338 -1.4873 0
M  V30 6 Pd 0.1522 -5.5089 -5.0661 0
M  V30 7 Pb -0.7614 -5.3349 -4.7020 0
M  V30 8 Pb 1.0788 -5.7140 -5.4202 0
M  V30 9 Pb 0.0310 -4.7600 -5.7225 0
M  V30 10 Pb 0.2907 -6.2298 -4.3913 0
M  V30 11 Pd -5.6492 2.7770 2.8626 0
M  V30 12 Pb -5.1636 3.3277 3.5420 0
M  V30 13 Pb -6.1545 2.2814 2.1524 0
M  V30 14 Pb -5.9686 2.1597 3.5855 0
M  V30 15 Pb -5.3007 3.4152 2.1762 0
M  V30 16 Pd -3.3447 -1.2068 5.5387 0
M  V30 17 Pb -4.2212 -0.7480 5.6910 0
M  V30 18 Pb -2.8476 -0.5402 6.0893 0
M  V30 19 Pb -3.8318 -1.8515 4.9546 0
M  V30 20 Pb -2.4516 -1.6082 5.3174 0
M  V30 21 Pd -5.4244 -1.2433 -1.3721 0
M  V30 22 Pb -4.9961 -2.0174 -1.8372 0
M  V30 23 Pb -5.9351 -0.5044 -0.9248 0
M  V30 24 Pb -5.6518 -1.8458 -0.6119 0
M  V30 25 Pb -5.0832 -0.6321 -2.0862 0
M  V30 26 Pd 3.3826 1.4437 4.9795 0
M  V30 27 Pb 2.6195 1.5539 5.6138 0
M  V30 28 Pb 3.6309 2.3970 5.1360 0
M  V30 29 Pb 4.1289 1.3563 4.3159 0
M  V30 30 Pb 3.0363 0.5183 4.8117 0
M  V30 31 Pd 0.0790 7.1324 2.6820 0
M  V30 32 Pb 0.7549 7.0971 1.9501 0
M  V30 33 Pb 0.8358 7.1206 3.3308 0
M  V30 34 Pb -0.6740 7.0231 2.0343 0
M  V30 35 Pb -0.5889 7.0020 3.4127 0
M  V30 36 Pd 0.9689 0.0348 -5.2952 0
M  V30 37 Pb 0.0352 0.3252 -5.0742 0
M  V30 38 Pb 1.8947 -0.2384 -5.5406 0
M  V30 39 Pb 0.5997 -0.7154 -5.8513 0
M  V30 40 Pb 1.3686 0.7815 -4.7576 0
M  V30 41 Pd 5.6258 -5.2076 -3.6995 0
M  V30 42 Pb 5.0962 -5.6371 -4.4417 0
M  V30 43 Pb 5.9808 -4.6661 -2.9420 0
M  V30 44 Pb 5.7682 -4.4231 -4.2928 0
M  V30 45 Pb 5.3771 -5.9648 -3.1014 0
M  V30 46 Ag -1.4483 -5.2233 -4.4258 0
M  V30 47 Fe -3.0513 -3.8802 -3.3019 0
M  V30 48 Ag -4.7302 -2.6229 -2.1901 0
M  V30 49 Ag 3.8508 3.4210 -0.4047 0
M  V30 50 Fe 2.5900 5.2245 0.4878 0
M  V30 51 Ag 1.2856 6.9646 1.4410 0
M  V30 52 Ag -4.7488 -0.1976 -2.5984 0
M  V30 53 Fe -2.7323 0.2045 -3.7904 0
M  V30 54 Ag -0.6750 0.5315 -4.9350 0
M  V30 55 Ag -4.2310 -2.2725 4.4843 0
M  V30 56 Fe -5.0571 -2.4058 2.2665 0
M  V30 57 Ag -5.7302 -2.2682 -0.0020 0
M  V30 58 Ag -2.3971 -0.0634 6.4466 0
M  V30 59 Fe -0.2116 0.8545 6.3683 0
M  V30 60 Ag 2.0145 1.6088 6.0504 0
M  V30 61 Ag -4.9899 3.9265 1.7240 0
M  V30 62 Fe -3.1723 5.4415 1.5272 0
M  V30 63 Ag -1.2641 6.8524 1.6052 0
M  V30 64 Ag 0.5476 -6.7133 -3.8880 0
M  V30 65 Fe 2.7067 -7.0052 -2.9821 0
M  V30 66 Ag 4.9975 -6.4943 -2.7463 0
M  V30 67 Ag -4.7876 3.7976 3.9900 0
M  V30 68 Fe -2.9786 5.3324 4.0920 0
M  V30 69 Ag -1.1147 6.7908 3.9021 0
M  V30 70 Ag -1.7508 -1.8287 5.1481 0
M  V30 71 Fe 0.5017 -1.1015 4.9044 0
M  V30 72 Ag 2.6682 -0.1333 4.7296 0
M  V30 73 Ag 2.5906 -0.4519 -5.7026 0
M  V30 74 Fe 4.2862 -2.0578 -5.3117 0
M  V30 75 Ag 5.7596 -3.8131 -4.7174 0
M  V30 76 Ag 4.9951 0.1487 -0.7982 0
M  V30 77 Fe 5.5716 -2.0115 -1.6035 0
M  V30 78 Ag 6.1472 -4.1733 -2.4052 0
M  V30 79 Ag 3.7151 3.1335 5.2278 0
M  V30 80 Fe 2.7055 5.1877 4.6115 0
M  V30 81 Ag 1.4221 6.9968 3.7758 0
M  V30 82 Ba 1.7603 -5.9248 -5.6903 0
M  V30 83 Ga 3.2010 -5.8964 -5.3138 0
M  V30 84 Ba 4.6572 -5.9023 -5.0009 0
M  V30 85 Ba -6.1846 1.7245 4.1607 0
M  V30 86 Ga -5.5473 0.6563 4.9592 0
M  V30 87 Ba -4.8903 -0.4106 5.7434 0
M  V30 88 Ba -0.0752 -4.1957 -6.2097 0
M  V30 89 Ga 0.1395 -2.7315 -6.2245 0
M  V30 90 Ba 0.3327 -1.2659 -6.2924 0
M  V30 91 Ba 5.1514 1.5845 0.9160 0
M  V30 92 Ga 4.8891 1.4626 2.3667 0
M  V30 93 Ba 4.7015 1.3324 3.8282 0
M  V30 94 Ba 3.4315 2.0495 -2.1062 0
M  V30 95 Ga 2.5685 1.6101 -3.2269 0
M  V30 96 Ba 1.7032 1.3549 -4.4021 0
M  V30 97 Ba -6.5571 1.9708 1.5975 0
M  V30 98 Ga -6.4093 0.9725 0.5165 0
M  V30 99 Ba -6.3877 0.0028 -0.5998 0
M  V30 END ATOM
M  V30 BEGIN BOND
M  V30 1 1 1 2
M  V30 2 1 1 3
M  V30 3 1 1 4
M  V30 4 1 1 5
M  V30 5 1 6 7
M  V30 6 1 6 8
M  V30 7 1 6 9
M  V30 8 1 6 10
M  V30 9 1 11 12
M  V30 10 1 11 13
M  V30 11 1 11 14
M  V30 12 1 11 15
M  V30 13 1 16 17
M  V30 14 1 16 18
M  V30 15 1 16 19
M  V30 16 1 16 20
M  V30 17 1 21 22
M  V30 18 1 21 23
M  V30 19 1 21 24
M  V30 20 1 21 25
M  V30 21 1 26 27
M  V30 22 1 26 28
M  V30 23 1 26 29
M  V30 24 1 26 30
M  V30 25 1 31 32
M  V30 26 1 31 33
M  V30 27 1 31 34
M  V30 28 1 31 35
M  V30 29 1 36 37
M  V30 30 1 36 38
M  V30 31 1 36 39
M  V30 32 1 36 40
M  V30 33 1 41 42
M  V30 34 1 41 43
M  V30 35 1 41 44
M  V30 36 1 41 45
M  V30 37 1 46 47
M  V30 38 1 47 48
M  V30 39 1 49 50
M  V30 40 1 50 51
M  V30 41 1 52 53
M  V30 42 1 53 54
M  V30 43 1 55 56
M  V30 44 1 56 57
M  V30 45 1 58 59
M  V30 46 1 59 60
M  V30 47 1 61 62
M  V30 48 1 62 63
M  V30 49 1 64 65
M  V30 50 1 65 66
M  V30 51 1 67 68
M  V30 52 1 68 69
M  V30 53 1 70 71
M  V30 54 1 71 72
M  V30 55 1 73 74
M  V30 56 1 74 75
M  V30 57 1 76 77
M  V30 58 1 77 78
M  V30 59 1 79 80
M  V30 60 1 80 81
M  V30 61 1 82 83
M  V30 62 1 83 84
M  V30 63 1 85 86
M  V30 64 1 86 87
M  V30 65 1 88 89
M  V30 66 1 89 90
M  V30 67 1 91 92
M  V30 68 1 92 93
M  V30 69 1 94 95
M  V30 70 1 95 96
M  V30 71 1 97 98
M  V30 72 1 98 99
M  V30 73 1 2 49
M  V30 74 1 3 76
M  V30 75 1 4 91
M  V30 76 1 5 94
M  V30 77 1 7 46
M  V30 78 1 8 82
M  V30 79 1 9 88
M  V30 80 1 10 64
M  V30 81 1 12 67
M  V30 82 1 13 97
M  V30 83 1 14 85
M  V30 84 1 15 61
M  V30 85 1 17 87
M  V30 86 1 18 58
M  V30 87 1 19 55
M  V30 88 1 20 70
M  V30 89 1 22 48
M  V30 90 1 23 99
M  V30 91 1 24 57
M  V30 92 1 25 52
M  V30 93 1 27 60
M  V30 94 1 28 79
M  V30 95 1 29 93
M  V30 96 1 30 72
M  V30 97 1 32 51
M  V30 98 1 33 81
M  V30 99 1 34 63
M  V30 100 1 35 69
M  V30 101 1 37 54
M  V30 102 1 38 73
M  V30 103 1 39 90
M  V30 104 1 40 96
M  V30 105 1 42 84
M  V30 106 1 43 78
M  V30 107 1 44 75
M  V30 108 1 45 66
M  V30 END BOND
M  V30 END CTAB
M  END

$$$$
