
     RDKit          3D

  0  0  0  0  0  0  0  0  0  0999 V3000
M  V30 BEGIN CTAB
M  V30 COUNTS 99 108 0 0 0
M  V30 BEGIN ATOM
M  V30 1 Pd -1.4730 4.2186 2.8409 0
M  V30 2 Pb -0.5664 4.1687 3.2604 0
M  V30 3 Pb -1.8435 3.5489 3.4871 0
M  V30 4 Pb -1.1024 4.8644 2.1777 0
M  V30 5 Pb -2.3486 4.2372 2.3647 0
M  V30 6 Pd -4.0791 -6.0716 3.2904 0
M  V30 7 Pb -3.3738 -5.4158 3.0255 0
M  V30 8 Pb -4.0494 -5.6997 4.2261 0
M  V30 9 Pb -4.2744 -6.2138 2.3243 0
M  V30 10 Pb -4.8755 -6.6215 3.5331 0
M  V30 11 Pd 6.6037 -2.0687 -0.5283 0
M  V30 12 Pb 6.4576 -1.8663 0.4396 0
M  V30 13 Pb 5.8492 -2.7221 -0.5467 0
M  V30 14 Pb 6.6871 -2.2227 -1.5095 0
M  V30 15 Pb 7.2836 -1.3374 -0.5585 0
M  V30 16 Pd 2.7998 0.6316 -5.8621 0
M  V30 17 Pb 3.4608 -0.1145 -5.8623 0
M  V30 18 Pb 3.5689 1.2644 -5.7816 0
M  V30 19 Pb 2.0399 -0.0198 -5.9208 0
M  V30 20 Pb 2.1739 1.4092 -5.7965 0
M  V30 21 Pd -0.7054 -2.1487 -2.4547 0
M  V30 22 Pb -0.9214 -2.2425 -1.4833 0
M  V30 23 Pb 0.1153 -2.6845 -2.2528 0
M  V30 24 Pb -0.4665 -2.0704 -3.4261 0
M  V30 25 Pb -1.5380 -1.6223 -2.6458 0
M  V30 26 Pd 3.4427 4.9040 -2.9385 0
M  V30 27 Pb 4.1019 4.4534 -3.5368 0
M  V30 28 Pb 4.1663 5.1450 -2.2874 0
M  V30 29 Pb 2.7755 5.3645 -2.3570 0
M  V30 30 Pb 2.7123 4.6417 -3.5743 0
M  V30 31 Pd 5.9530 2.5997 1.4498 0
M  V30 32 Pb 5.2181 2.9304 2.0458 0
M  V30 33 Pb 5.9694 3.4697 0.9506 0
M  V30 34 Pb 6.7084 2.2558 0.8896 0
M  V30 35 Pb 5.9408 1.7202 1.9281 0
M  V30 36 Pd -5.9582 -0.5475 -0.5839 0
M  V30 37 Pb -5.3051 -0.4967 -1.3429 0
M  V30 38 Pb -6.6182 -0.5398 0.1745 0
M  V30 39 Pb -5.9731 -1.5438 -0.6841 0
M  V30 40 Pb -5.8922 0.4390 -0.4571 0
M  V30 41 Pd -6.4523 -1.6432 4.8418 0
M  V30 42 Pb -5.8769 -2.2923 5.3630 0
M  V30 43 Pb -5.7229 -0.9563 4.8989 0
M  V30 44 Pb -6.9855 -1.1005 4.1922 0
M  V30 45 Pb -7.1865 -2.3187 4.8567 0
M  V30 46 Ag -2.9102 -4.8684 2.8094 0
M  V30 47 Fe -1.9527 -3.6081 1.0394 0
M  V30 48 Ag -1.0097 -2.3617 -0.7483 0
M  V30 49 Ag 0.1373 4.1354 3.5192 0
M  V30 50 Fe 2.4128 3.6498 3.0346 0
M  V30 51 Ag 4.6806 3.1579 2.5207 0
M  V30 52 Ag -5.5669 -6.7979 3.7327 0
M  V30 53 Fe -7.1333 -5.1779 4.4124 0
M  V30 54 Ag -7.6245 -2.9200 4.8693 0
M  V30 55 Ag 6.6442 -2.3154 -2.2488 0
M  V30 56 Fe 5.4143 -1.5805 -4.1368 0
M  V30 57 Ag 4.0007 -0.6234 -5.7809 0
M  V30 58 Ag -4.5062 -6.1335 1.6195 0
M  V30 59 Fe -5.2411 -4.3201 0.2759 0
M  V30 60 Ag -5.9098 -2.2892 -0.7564 0
M  V30 61 Ag -0.8028 5.3227 1.6696 0
M  V30 62 Fe 0.7231 5.5623 -0.1301 0
M  V30 63 Ag 2.2729 5.7041 -1.9199 0
M  V30 64 Ag -2.9827 4.2045 1.9716 0
M  V30 65 Fe -4.4677 2.7720 0.8041 0
M  V30 66 Ag -5.8141 1.1655 -0.3036 0
M  V30 67 Ag -2.1289 3.0406 3.9616 0
M  V30 68 Fe -3.6704 1.2925 4.4340 0
M  V30 69 Ag -5.1658 -0.4625 5.0155 0
M  V30 70 Ag 5.2504 -3.1601 -0.6469 0
M  V30 71 Fe 2.9760 -3.1855 -1.3296 0
M  V30 72 Ag 0.7095 -3.0874 -2.0324 0
M  V30 73 Ba -2.1449 -1.2245 -2.8473 0
M  V30 74 Ga -3.4820 -0.8540 -2.3362 0
M  V30 75 Ba -4.8357 -0.4230 -1.9263 0
M  V30 76 Ba 1.4843 -0.5249 -5.9729 0
M  V30 77 Ga 0.5951 -1.2549 -5.0435 0
M  V30 78 Ba -0.3197 -2.0131 -4.1627 0
M  V30 79 Ba 4.1512 1.7283 -5.6984 0
M  V30 80 Ga 4.3861 2.9200 -4.8656 0
M  V30 81 Ba 4.5641 4.1062 -4.0112 0
M  V30 82 Ba 7.7367 -0.7411 -0.5783 0
M  V30 83 Ga 7.5464 0.6250 -0.0545 0
M  V30 84 Ba 7.2812 1.9673 0.4981 0
M  V30 85 Ba -4.0857 -5.3360 4.8918 0
M  V30 86 Ga -4.7601 -4.0751 5.3139 0
M  V30 87 Ba -5.4425 -2.8113 5.7144 0
M  V30 88 Ba 6.3377 -1.6575 1.1496 0
M  V30 89 Ga 6.1369 -0.3217 1.7434 0
M  V30 90 Ba 5.9446 1.0468 2.2610 0
M  V30 91 Ba 1.7488 2.0218 -5.7105 0
M  V30 92 Ga 1.9353 3.2357 -4.8885 0
M  V30 93 Ba 2.1674 4.4298 -4.0491 0
M  V30 94 Ba -7.1185 -0.4248 0.7293 0
M  V30 95 Ga -7.2381 -0.6088 2.1931 0
M  V30 96 Ba -7.3991 -0.7772 3.6549 0
M  V30 97 Ba 4.6973 5.3360 -1.7891 0
M  V30 98 Ga 5.3378 4.7106 -0.6117 0
M  V30 99 Ba 6.0011 4.1192 0.5707 0
M  V30 END ATOM
M  V30 BEGIN BOND
M  V30 1 1 1 2
M  V30 2 1 1 3
M  V30 3 1 1 4
M  V30 4 1 1 5
M  V30 5 1 6 7
M  V30 6 1 6 8
M  V30 7 1 6 9
M  V30 8 1 6 10
M  V30 9 1 11 12
M  V30 10 1 11 13
M  V30 11 1 11 14
M  V30 12 1 11 15
M  V30 13 1 16 17
M  V30 14 1 16 18
M  V30 15 1 16 19
M  V30 16 1 16 20
M  V30 17 1 21 22
M  V30 18 1 21 23
M  V30 19 1 21 24
M  V30 20 1 21 25
M  V30 21 1 26 27
M  V30 22 1 26 28
M  V30 23 1 26 29
M  V30 24 1 26 30
M  V30 25 1 31 32
M  V30 26 1 31 33
M  V30 27 1 31 34
M  V30 28 1 31 35
M  V30 29 1 36 37
M  V30 30 1 36 38
M  V30 31 1 36 39
M  V30 32 1 36 40
M  V30 33 1 41 42
M  V30 34 1 41 43
M  V30 35 1 41 44
M  V30 36 1 41 45
M  V30 37 1 46 47
M  V30 38 1 47 48
M  V30 39 1 49 50
M  V30 40 1 50 51
M  V30 41 1 52 53
M  V30 42 1 53 54
M  V30 43 1 55 56
M  V30 44 1 56 57
M  V30 45 1 58 59
M  V30 46 1 59 60
M  V30 47 1 61 62
M  V30 48 1 62 63
M  V30 49 1 64 65
M  V30 50 1 65 66
M  V30 51 1 67 68
M  V30 52 1 68 69
M  V30 53 1 70 71
M  V30 54 1 71 72
M  V30 55 1 73 74
M  V30 56 1 74 75
M  V30 57 1 76 77
M  V30 58 1 77 78
M  V30 59 1 79 80
M  V30 60 1 80 81
M  V30 61 1 82 83
M  V30 62 1 83 84
M  V30 63 1 85 86
M  V30 64 1 86 87
M  V30 65 1 88 89
M  V30 66 1 89 90
M  V30 67 1 91 92
M  V30 68 1 92 93
M  V30 69 1 94 95
M  V30 70 1 95 96
M  V30 71 1 97 98
M  V30 72 1 98 99
M  V30 73 1 2 49
M  V30 74 1 3 67
M  V30 75 1 4 61
M  V30 76 1 5 64
M  V30 77 1 7 46
M  V30 78 1 8 85
M  V30 79 1 9 58
M  V30 80 1 10 52
M  V30 81 1 12 88
M  V30 82 1 13 70
M  V30 83 1 14 55
M  V30 84 1 15 82
M  V30 85 1 17 57
M  V30 86 1 18 79
M  V30 87 1 19 76
M  V30 88 1 20 91
M  V30 89 1 22 48
M  V30 90 1 23 72
M  V30 91 1 24 78
M  V30 92 1 25 73
M  V30 93 1 27 81
M  V30 94 1 28 97
M  V30 95 1 29 63
M  V30 96 1 30 93
M  V30 97 1 32 51
M  V30 98 1 33 99
M  V30 99 1 34 84
M  V30 100 1 35 90
M  V30 101 1 37 75
M  V30 102 1 38 94
M  V30 103 1 39 60
M  V30 104 1 40 66
M  V30 105 1 42 87
M  V30 106 1 43 69
M  V30 107 1 44 96
M  V30 108 1 45 54
M  V30 END BOND
M  V30 END CTAB
M  END

$$$$
