
     RDKit          3D

  0  0  0  0  0  0  0  0  0  0999 V3000
M  V30 BEGIN CTAB
M  V30 COUNTS 99 108 0 0 0
M  V30 BEGIN ATOM
M  V30 1 Pd 1.8961 -3.6722 -0.6582 0
M  V30 2 Pb 1.1846 -3.5907 -1.3678 0
M  V30 3 Pb 2.5925 -3.8553 -1.3557 0
M  V30 4 Pb 1.2393 -3.6936 0.0960 0
M  V30 5 Pb 2.6268 -3.6575 0.0244 0
M  V30 6 Pd -1.5643 -1.9870 6.2769 0
M  V30 7 Pb -0.6771 -1.5415 6.3674 0
M  V30 8 Pb -1.9663 -1.2592 6.8513 0
M  V30 9 Pb -1.2339 -2.6154 5.5740 0
M  V30 10 Pb -2.4648 -2.3973 6.1599 0
M  V30 11 Pd -3.0546 3.3097 5.4560 0
M  V30 12 Pb -2.9300 3.8817 4.6469 0
M  V30 13 Pb -3.1196 2.6384 6.2100 0
M  V30 14 Pb -4.0022 3.1276 5.1892 0
M  V30 15 Pb -2.0902 3.4254 5.6804 0
M  V30 16 Pd -3.1824 -1.2008 -2.5172 0
M  V30 17 Pb -4.0493 -0.7268 -2.3694 0
M  V30 18 Pb -2.8703 -0.3347 -2.9198 0
M  V30 19 Pb -3.5849 -2.0237 -2.1099 0
M  V30 20 Pb -2.3369 -1.7149 -2.7134 0
M  V30 21 Pd 1.9253 4.2515 -0.1781 0
M  V30 22 Pb 2.1435 3.7103 0.6372 0
M  V30 23 Pb 1.7123 4.7157 -1.0353 0
M  V30 24 Pb 1.0239 4.4810 0.1910 0
M  V30 25 Pb 2.8450 4.0858 -0.5230 0
M  V30 26 Pd -6.7482 -1.4921 1.2288 0
M  V30 27 Pb -6.3820 -2.2428 0.6749 0
M  V30 28 Pb -6.8036 -0.9302 0.4086 0
M  V30 29 Pb -6.9980 -0.7073 1.7963 0
M  V30 30 Pb -6.6409 -2.0345 2.0576 0
M  V30 31 Pd 4.8666 -1.6505 -4.7724 0
M  V30 32 Pb 4.1846 -2.0151 -5.3935 0
M  V30 33 Pb 5.5843 -1.3414 -4.1486 0
M  V30 34 Pb 4.6737 -0.7098 -5.1102 0
M  V30 35 Pb 4.9269 -2.5527 -4.3607 0
M  V30 36 Pd 5.2614 0.2116 0.3625 0
M  V30 37 Pb 5.8996 -0.1456 -0.3177 0
M  V30 38 Pb 5.3698 1.1017 -0.0702 0
M  V30 39 Pb 5.1467 -0.6944 0.7755 0
M  V30 40 Pb 4.6233 0.6190 1.0205 0
M  V30 41 Pd 0.5908 2.2986 -5.0883 0
M  V30 42 Pb -0.3508 2.3618 -4.7690 0
M  V30 43 Pb 1.5656 2.1357 -5.3366 0
M  V30 44 Pb 0.3239 1.4943 -5.6031 0
M  V30 45 Pb 0.8120 3.1661 -4.6369 0
M  V30 46 Ag 3.6056 -2.1921 -5.8148 0
M  V30 47 Fe 1.6221 -1.0085 -6.2393 0
M  V30 48 Ag 0.2295 0.8646 -5.9761 0
M  V30 49 Ag -2.7880 4.2489 4.0099 0
M  V30 50 Fe -1.2456 4.5080 2.2229 0
M  V30 51 Ag 0.3645 4.6856 0.4861 0
M  V30 52 Ag -3.1377 -2.6811 6.0067 0
M  V30 53 Fe -4.9033 -2.6391 4.4266 0
M  V30 54 Ag -6.5032 -2.3964 2.6953 0
M  V30 55 Ag -0.1237 -1.0497 6.4234 0
M  V30 56 Fe -0.2263 1.2971 6.2202 0
M  V30 57 Ag -1.3724 3.3223 5.8402 0
M  V30 58 Ag 0.8309 -3.8410 0.7093 0
M  V30 59 Fe -0.1000 -3.3892 2.8480 0
M  V30 60 Ag -1.0862 -3.0532 4.9834 0
M  V30 61 Ag -4.6931 2.9486 4.9549 0
M  V30 62 Fe -5.9896 1.4676 3.6242 0
M  V30 63 Ag -7.1019 -0.1127 2.2421 0
M  V30 64 Ba -4.7044 -0.3745 -2.2810 0
M  V30 65 Ga -5.7673 -0.4215 -1.2651 0
M  V30 66 Ba -6.7901 -0.5178 -0.2124 0
M  V30 67 Ba 3.1377 -4.0983 -1.8157 0
M  V30 68 Ga 4.0115 -3.6454 -2.9130 0
M  V30 69 Ba 4.8910 -3.2093 -4.0125 0
M  V30 70 Ba -2.7902 0.3676 -3.1877 0
M  V30 71 Ga -1.8787 1.3223 -3.8508 0
M  V30 72 Ba -1.0507 2.3543 -4.5088 0
M  V30 73 Ba 3.1837 -3.5959 0.5232 0
M  V30 74 Ga 4.1295 -2.5003 0.8165 0
M  V30 75 Ba 5.0545 -1.3783 1.0749 0
M  V30 76 Ba -3.9401 -2.6129 -1.8043 0
M  V30 77 Ga -4.9955 -2.7249 -0.7743 0
M  V30 78 Ba -6.0498 -2.7767 0.2617 0
M  V30 79 Ba 6.1422 -1.1844 -3.6722 0
M  V30 80 Ga 6.2547 -0.7652 -2.2628 0
M  V30 81 Ba 6.3819 -0.3457 -0.8548 0
M  V30 82 Ba -2.2906 -0.6946 7.2457 0
M  V30 83 Ga -2.7043 0.7136 6.9854 0
M  V30 84 Ba -3.1350 2.1245 6.7724 0
M  V30 85 Ba 1.5776 5.0182 -1.7061 0
M  V30 86 Ga 1.2557 4.4277 -3.0198 0
M  V30 87 Ba 0.9354 3.8460 -4.3378 0
M  V30 88 Ba 0.7118 -3.5071 -1.9546 0
M  V30 89 Ga -0.5325 -2.8014 -2.3543 0
M  V30 90 Ba -1.7569 -2.1653 -2.9041 0
M  V30 91 Ba 4.5110 -0.0023 -5.3618 0
M  V30 92 Ga 3.3688 0.9662 -5.4125 0
M  V30 93 Ba 2.3020 2.0128 -5.5209 0
M  V30 94 Ba 3.5433 3.9783 -0.7629 0
M  V30 95 Ga 4.5081 2.8824 -0.6026 0
M  V30 96 Ba 5.4363 1.7597 -0.4143 0
M  V30 97 Ba 2.3179 3.2665 1.2197 0
M  V30 98 Ga 3.2298 2.1121 1.3768 0
M  V30 99 Ba 4.1515 0.9612 1.4978 0
M  V30 END ATOM
M  V30 BEGIN BOND
M  V30 1 1 1 2
M  V30 2 1 1 3
M  V30 3 1 1 4
M  V30 4 1 1 5
M  V30 5 1 6 7
M  V30 6 1 6 8
M  V30 7 1 6 9
M  V30 8 1 6 10
M  V30 9 1 11 12
M  V30 10 1 11 13
M  V30 11 1 11 14
M  V30 12 1 11 15
M  V30 13 1 16 17
M  V30 14 1 16 18
M  V30 15 1 16 19
M  V30 16 1 16 20
M  V30 17 1 21 22
M  V30 18 1 21 23
M  V30 19 1 21 24
M  V30 20 1 21 25
M  V30 21 1 26 27
M  V30 22 1 26 28
M  V30 23 1 26 29
M  V30 24 1 26 30
M  V30 25 1 31 32
M  V30 26 1 31 33
M  V30 27 1 31 34
M  V30 28 1 31 35
M  V30 29 1 36 37
M  V30 30 1 36 38
M  V30 31 1 36 39
M  V30 32 1 36 40
M  V30 33 1 41 42
M  V30 34 1 41 43
M  V30 35 1 41 44
M  V30 36 1 41 45
M  V30 37 1 46 47
M  V30 38 1 47 48
M  V30 39 1 49 50
M  V30 40 1 50 51
M  V30 41 1 52 53
M  V30 42 1 53 54
M  V30 43 1 55 56
M  V30 44 1 56 57
M  V30 45 1 58 59
M  V30 46 1 59 60
M  V30 47 1 61 62
M  V30 48 1 62 63
M  V30 49 1 64 65
M  V30 50 1 65 66
M  V30 51 1 67 68
M  V30 52 1 68 69
M  V30 53 1 70 71
M  V30 54 1 71 72
M  V30 55 1 73 74
M  V30 56 1 74 75
M  V30 57 1 76 77
M  V30 58 1 77 78
M  V30 59 1 79 80
M  V30 60 1 80 81
M  V30 61 1 82 83
M  V30 62 1 83 84
M  V30 63 1 85 86
M  V30 64 1 86 87
M  V30 65 1 88 89
M  V30 66 1 89 90
M  V30 67 1 91 92
M  V30 68 1 92 93
M  V30 69 1 94 95
M  V30 70 1 95 96
M  V30 71 1 97 98
M  V30 72 1 98 99
M  V30 73 1 2 88
M  V30 74 1 3 67
M  V30 75 1 4 58
M  V30 76 1 5 73
M  V30 77 1 7 55
M  V30 78 1 8 82
M  V30 79 1 9 60
M  V30 80 1 10 52
M  V30 81 1 12 49
M  V30 82 1 13 84
M  V30 83 1 14 61
M  V30 84 1 15 57
M  V30 85 1 17 64
M  V30 86 1 18 70
M  V30 87 1 19 76
M  V30 88 1 20 90
M  V30 89 1 22 97
M  V30 90 1 23 85
M  V30 91 1 24 51
M  V30 92 1 25 94
M  V30 93 1 27 78
M  V30 94 1 28 66
M  V30 95 1 29 63
M  V30 96 1 30 54
M  V30 97 1 32 46
M  V30 98 1 33 79
M  V30 99 1 34 91
M  V30 100 1 35 69
M  V30 101 1 37 81
M  V30 102 1 38 96
M  V30 103 1 39 75
M  V30 104 1 40 99
M  V30 105 1 42 72
M  V30 106 1 43 93
M  V30 107 1 44 48
M  V30 108 1 45 87
M  V30 END BOND
M  V30 END CTAB
M  END

$$$$
