
     RDKit          3D

  0  0  0  0  0  0  0  0  0  0999 V3000
M  V30 BEGIN CTAB
M  V30 COUNTS 99 108 0 0 0
M  V30 BEGIN ATOM
M  V30 1 Pd -2.4371 -4.5523 -1.4289 0
M  V30 2 Pb -1.5604 -4.1587 -1.1663 0
M  V30 3 Pb -2.4417 -4.0508 -2.2894 0
M  V30 4 Pb -3.3968 -4.8247 -1.6062 0
M  V30 5 Pb -2.4009 -5.0435 -0.5616 0
M  V30 6 Pd -7.3921 -1.9908 -1.3630 0
M  V30 7 Pb -7.5485 -1.0416 -1.0936 0
M  V30 8 Pb -7.0656 -2.9277 -1.5678 0
M  V30 9 Pb -7.0617 -1.6957 -2.2550 0
M  V30 10 Pb -7.6855 -2.2728 -0.4511 0
M  V30 11 Pd 3.2981 -0.6916 -3.6428 0
M  V30 12 Pb 3.3392 0.0248 -4.3350 0
M  V30 13 Pb 3.2435 -1.3152 -2.8577 0
M  V30 14 Pb 4.2939 -0.6096 -3.5730 0
M  V30 15 Pb 2.3073 -0.7373 -3.7604 0
M  V30 16 Pd 6.8549 1.8526 -0.4708 0
M  V30 17 Pb 6.8239 0.9333 -0.0887 0
M  V30 18 Pb 6.8898 2.7892 -0.8376 0
M  V30 19 Pb 6.7264 2.2126 0.4645 0
M  V30 20 Pb 6.9481 1.4352 -1.3732 0
M  V30 21 Pd -1.1397 0.5596 -0.7107 0
M  V30 22 Pb -1.3400 1.4854 -1.0287 0
M  V30 23 Pb -1.3651 0.8461 0.2228 0
M  V30 24 Pb -0.9566 0.2656 -1.6471 0
M  V30 25 Pb -0.7905 -0.3308 -0.4174 0
M  V30 26 Pd -5.2904 -0.2697 2.7618 0
M  V30 27 Pb -5.7787 0.2861 2.0847 0
M  V30 28 Pb -4.8268 -0.8391 3.4397 0
M  V30 29 Pb -6.0659 -0.8993 2.7606 0
M  V30 30 Pb -4.4845 0.3254 2.7353 0
M  V30 31 Pd 3.3955 5.8975 -1.9936 0
M  V30 32 Pb 2.4003 5.8517 -2.0788 0
M  V30 33 Pb 3.2728 6.1192 -1.0271 0
M  V30 34 Pb 3.4804 5.5666 -2.9306 0
M  V30 35 Pb 4.3911 5.8290 -1.8893 0
M  V30 36 Pd -0.4889 -2.6184 2.9345 0
M  V30 37 Pb -0.2918 -1.6791 3.2276 0
M  V30 38 Pb 0.2774 -2.6577 2.2833 0
M  V30 39 Pb -0.7608 -3.5478 2.6783 0
M  V30 40 Pb -1.2574 -2.5978 3.5724 0
M  V30 41 Pd 3.1232 1.8216 3.8994 0
M  V30 42 Pb 4.0623 2.1059 3.6577 0
M  V30 43 Pb 3.4274 0.8749 3.9464 0
M  V30 44 Pb 2.8599 2.7752 3.7640 0
M  V30 45 Pb 2.1779 1.5392 4.0531 0
M  V30 46 Ag -2.5930 -3.6381 -2.8867 0
M  V30 47 Fe -4.5172 -2.3779 -3.3918 0
M  V30 48 Ag -6.6654 -1.5684 -2.8680 0
M  V30 49 Ag 3.1237 6.1938 -0.2966 0
M  V30 50 Fe 2.8956 4.9722 1.7258 0
M  V30 51 Ag 2.7517 3.4916 3.5755 0
M  V30 52 Ag 3.3866 0.6442 -4.7483 0
M  V30 53 Fe 3.4701 2.9883 -4.4112 0
M  V30 54 Ag 3.5157 5.2088 -3.5849 0
M  V30 55 Ag -1.3770 2.1961 -1.2628 0
M  V30 56 Fe 0.0119 4.0635 -1.7329 0
M  V30 57 Ag 1.6614 5.7287 -2.1118 0
M  V30 58 Ag 6.7157 0.3021 0.2878 0
M  V30 59 Fe 5.3458 -0.2376 2.1296 0
M  V30 60 Ag 3.7648 0.2287 3.8145 0
M  V30 61 Ag 3.1863 -1.7330 -2.2320 0
M  V30 62 Fe 2.0038 -2.2292 -0.2254 0
M  V30 63 Ag 0.8432 -2.7454 1.7888 0
M  V30 64 Ba 5.0366 -0.4929 -3.5909 0
M  V30 65 Ga 6.0196 0.2761 -2.8028 0
M  V30 66 Ba 6.9993 1.0444 -2.0101 0
M  V30 67 Ba -0.2601 -0.9815 3.5121 0
M  V30 68 Ga 0.6507 0.1449 3.7997 0
M  V30 69 Ba 1.4627 1.3328 4.1335 0
M  V30 70 Ba -7.8712 -2.4380 0.2548 0
M  V30 71 Ga -7.2966 -1.9451 1.5180 0
M  V30 72 Ba -6.6376 -1.3801 2.7078 0
M  V30 73 Ba 6.6532 2.4513 1.1827 0
M  V30 74 Ga 5.6713 2.3797 2.2989 0
M  V30 75 Ba 4.7544 2.3599 3.4712 0
M  V30 76 Ba -4.1302 -4.9940 -1.7363 0
M  V30 77 Ga -5.4442 -4.2845 -1.7159 0
M  V30 78 Ba -6.7829 -3.6227 -1.7106 0
M  V30 79 Ba -1.5592 1.0976 0.9048 0
M  V30 80 Ga -2.7102 0.9112 1.8134 0
M  V30 81 Ba -3.8540 0.7357 2.7332 0
M  V30 82 Ba -2.2892 -5.3690 0.1023 0
M  V30 83 Ga -1.6601 -4.8328 1.3238 0
M  V30 84 Ba -1.0206 -4.2331 2.5100 0
M  V30 85 Ba -7.5706 -0.3391 -0.8329 0
M  V30 86 Ga -6.9023 0.2171 0.3613 0
M  V30 87 Ba -6.1898 0.6608 1.5771 0
M  V30 88 Ba -4.4787 -1.2689 3.9452 0
M  V30 89 Ga -3.1607 -1.9255 4.0058 0
M  V30 90 Ba -1.8376 -2.5734 4.0453 0
M  V30 91 Ba 1.5678 -0.7433 -3.8791 0
M  V30 92 Ga 0.3726 -0.3653 -3.1051 0
M  V30 93 Ba -0.8282 0.0101 -2.3387 0
M  V30 94 Ba -0.9601 -3.8227 -0.8753 0
M  V30 95 Ga -0.6879 -2.4059 -0.5722 0
M  V30 96 Ba -0.4440 -0.9823 -0.2766 0
M  V30 97 Ba 6.9386 3.5043 -1.0796 0
M  V30 98 Ga 6.0225 4.6080 -1.4522 0
M  V30 99 Ba 5.1366 5.7336 -1.8324 0
M  V30 END ATOM
M  V30 BEGIN BOND
M  V30 1 1 1 2
M  V30 2 1 1 3
M  V30 3 1 1 4
M  V30 4 1 1 5
M  V30 5 1 6 7
M  V30 6 1 6 8
M  V30 7 1 6 9
M  V30 8 1 6 10
M  V30 9 1 11 12
M  V30 10 1 11 13
M  V30 11 1 11 14
M  V30 12 1 11 15
M  V30 13 1 16 17
M  V30 14 1 16 18
M  V30 15 1 16 19
M  V30 16 1 16 20
M  V30 17 1 21 22
M  V30 18 1 21 23
M  V30 19 1 21 24
M  V30 20 1 21 25
M  V30 21 1 26 27
M  V30 22 1 26 28
M  V30 23 1 26 29
M  V30 24 1 26 30
M  V30 25 1 31 32
M  V30 26 1 31 33
M  V30 27 1 31 34
M  V30 28 1 31 35
M  V30 29 1 36 37
M  V30 30 1 36 38
M  V30 31 1 36 39
M  V30 32 1 36 40
M  V30 33 1 41 42
M  V30 34 1 41 43
M  V30 35 1 41 44
M  V30 36 1 41 45
M  V30 37 1 46 47
M  V30 38 1 47 48
M  V30 39 1 49 50
M  V30 40 1 50 51
M  V30 41 1 52 53
M  V30 42 1 53 54
M  V30 43 1 55 56
M  V30 44 1 56 57
M  V30 45 1 58 59
M  V30 46 1 59 60
M  V30 47 1 61 62
M  V30 48 1 62 63
M  V30 49 1 64 65
M  V30 50 1 65 66
M  V30 51 1 67 68
M  V30 52 1 68 69
M  V30 53 1 70 71
M  V30 54 1 71 72
M  V30 55 1 73 74
M  V30 56 1 74 75
M  V30 57 1 76 77
M  V30 58 1 77 78
M  V30 59 1 79 80
M  V30 60 1 80 81
M  V30 61 1 82 83
M  V30 62 1 83 84
M  V30 63 1 85 86
M  V30 64 1 86 87
M  V30 65 1 88 89
M  V30 66 1 89 90
M  V30 67 1 91 92
M  V30 68 1 92 93
M  V30 69 1 94 95
M  V30 70 1 95 96
M  V30 71 1 97 98
M  V30 72 1 98 99
M  V30 73 1 2 94
M  V30 74 1 3 46
M  V30 75 1 4 76
M  V30 76 1 5 82
M  V30 77 1 7 85
M  V30 78 1 8 78
M  V30 79 1 9 48
M  V30 80 1 10 70
M  V30 81 1 12 52
M  V30 82 1 13 61
M  V30 83 1 14 64
M  V30 84 1 15 91
M  V30 85 1 17 58
M  V30 86 1 18 97
M  V30 87 1 19 73
M  V30 88 1 20 66
M  V30 89 1 22 55
M  V30 90 1 23 79
M  V30 91 1 24 93
M  V30 92 1 25 96
M  V30 93 1 27 87
M  V30 94 1 28 88
M  V30 95 1 29 72
M  V30 96 1 30 81
M  V30 97 1 32 57
M  V30 98 1 33 49
M  V30 99 1 34 54
M  V30 100 1 35 99
M  V30 101 1 37 67
M  V30 102 1 38 63
M  V30 103 1 39 84
M  V30 104 1 40 90
M  V30 105 1 42 75
M  V30 106 1 43 60
M  V30 107 1 44 51
M  V30 108 1 45 69
M  V30 END BOND
M  V30 END CTAB
M  END

$$$$
