
     RDKit          3D

  0  0  0  0  0  0  0  0  0  0999 V3000
M  V30 BEGIN CTAB
M  V30 COUNTS 99 108 0 0 0
M  V30 BEGIN ATOM
M  V30 1 Pd 5.4305 3.9223 5.1163 0
M  V30 2 Pb 4.7639 4.3632 4.5198 0
M  V30 3 Pb 6.0254 3.4341 5.7544 0
M  V30 4 Pb 5.1952 4.5503 5.8571 0
M  V30 5 Pb 5.6192 3.2594 4.3928 0
M  V30 6 Pd 3.3884 2.1470 8.8977 0
M  V30 7 Pb 3.2382 1.1684 8.7771 0
M  V30 8 Pb 3.5460 3.1322 8.9205 0
M  V30 9 Pb 4.3768 2.0146 8.8308 0
M  V30 10 Pb 2.4005 2.2919 8.8503 0
M  V30 11 Pd 0.9565 1.2645 -6.2474 0
M  V30 12 Pb 0.0764 1.6644 -6.5032 0
M  V30 13 Pb 1.7731 0.8371 -5.8615 0
M  V30 14 Pb 0.8039 0.4731 -6.8364 0
M  V30 15 Pb 1.0794 2.0428 -5.6414 0
M  V30 16 Pd -3.9502 -4.2230 -7.3648 0
M  V30 17 Pb -3.5895 -5.1271 -7.1381 0
M  V30 18 Pb -4.2837 -3.2860 -7.4447 0
M  V30 19 Pb -4.8176 -4.4881 -6.9519 0
M  V30 20 Pb -3.0720 -3.9308 -7.7367 0
M  V30 21 Pd -0.9744 3.1330 0.6534 0
M  V30 22 Pb -1.7601 2.8017 0.1216 0
M  V30 23 Pb -1.3636 2.7158 1.4775 0
M  V30 24 Pb -0.5701 3.5234 -0.1675 0
M  V30 25 Pb -0.2301 3.5611 1.1654 0
M  V30 26 Pd 0.2201 0.0485 5.4351 0
M  V30 27 Pb 0.8703 -0.3758 6.0662 0
M  V30 28 Pb 0.4241 -0.6814 4.7799 0
M  V30 29 Pb 0.0247 0.7399 6.1332 0
M  V30 30 Pb -0.4784 0.4582 4.8419 0
M  V30 31 Pd -3.8032 0.4082 -4.0497 0
M  V30 32 Pb -3.6495 0.9598 -3.2218 0
M  V30 33 Pb -4.1777 -0.2850 -3.4263 0
M  V30 34 Pb -3.4256 1.1012 -4.6704 0
M  V30 35 Pb -4.0938 -0.0708 -4.8853 0
M  V30 36 Pd 2.6926 -1.6893 0.3686 0
M  V30 37 Pb 2.0874 -2.3782 -0.0300 0
M  V30 38 Pb 3.0686 -1.4845 -0.5370 0
M  V30 39 Pb 3.3565 -1.0575 0.7720 0
M  V30 40 Pb 2.2850 -1.9129 1.2563 0
M  V30 41 Pd -3.8076 -5.0297 -2.8560 0
M  V30 42 Pb -4.7008 -5.1043 -3.2927 0
M  V30 43 Pb -3.4849 -5.7756 -3.4404 0
M  V30 44 Pb -4.1307 -4.2163 -2.3740 0
M  V30 45 Pb -2.8997 -4.9655 -2.4425 0
M  V30 46 Ag 0.6643 -0.1321 -7.2534 0
M  V30 47 Fe -0.8211 -1.9298 -7.6884 0
M  V30 48 Ag -2.4204 -3.6573 -7.9799 0
M  V30 49 Ag 1.6654 -2.9390 -0.2943 0
M  V30 50 Fe -0.3056 -3.8763 -1.2304 0
M  V30 51 Ag -2.2046 -4.9560 -2.1619 0
M  V30 52 Ag 5.7229 2.7558 3.8479 0
M  V30 53 Fe 4.7905 1.0738 2.4533 0
M  V30 54 Ag 3.9021 -0.6140 1.0373 0
M  V30 55 Ag 1.1095 2.6087 -5.1595 0
M  V30 56 Fe 0.4828 3.3000 -2.9834 0
M  V30 57 Ag -0.2350 3.7836 -0.7795 0
M  V30 58 Ag 4.2276 4.6567 4.0898 0
M  V30 59 Fe 2.2756 4.2774 2.7932 0
M  V30 60 Ag 0.3193 3.9580 1.4871 0
M  V30 61 Ag 2.3337 0.5114 -5.4856 0
M  V30 62 Fe 2.9171 -0.4283 -3.3831 0
M  V30 63 Ag 3.3309 -1.3297 -1.2242 0
M  V30 64 Ba 1.6644 2.3882 8.7452 0
M  V30 65 Ga 0.7501 1.8291 7.7300 0
M  V30 66 Ba -0.1062 1.2322 6.6860 0
M  V30 67 Ba 6.3960 3.0604 6.2881 0
M  V30 68 Ga 5.8414 2.4745 7.5216 0
M  V30 69 Ba 5.1111 1.9570 8.6927 0
M  V30 70 Ba -4.4412 -0.7445 -2.8881 0
M  V30 71 Ga -4.4098 -2.1706 -2.4995 0
M  V30 72 Ba -4.4061 -3.5867 -2.0743 0
M  V30 73 Ba -5.4283 -4.6793 -6.5689 0
M  V30 74 Ga -5.4961 -4.9395 -5.1262 0
M  V30 75 Ba -5.3349 -5.1549 -3.6834 0
M  V30 76 Ba 4.9921 4.9614 6.4495 0
M  V30 77 Ga 4.3445 4.5038 7.6896 0
M  V30 78 Ba 3.7031 3.8594 8.8472 0
M  V30 79 Ba -1.6902 2.3875 2.0704 0
M  V30 80 Ga -1.3089 1.5802 3.2494 0
M  V30 81 Ba -1.0477 0.7691 4.4580 0
M  V30 82 Ba 3.1076 0.4493 8.6203 0
M  V30 83 Ga 2.2322 -0.1584 7.6026 0
M  V30 84 Ba 1.3357 -0.6929 6.5624 0
M  V30 85 Ba -0.5966 1.9828 -6.5986 0
M  V30 86 Ga -1.8886 1.7885 -5.9058 0
M  V30 87 Ba -3.1691 1.5770 -5.1965 0
M  V30 88 Ba 0.5983 -1.2806 4.3604 0
M  V30 89 Ga 1.2815 -1.6417 3.1010 0
M  V30 90 Ba 1.9335 -2.1513 1.8770 0
M  V30 91 Ba -2.3967 2.6242 -0.2423 0
M  V30 92 Ga -2.9286 1.9534 -1.4516 0
M  V30 93 Ba -3.6832 1.3499 -2.5744 0
M  V30 94 Ba -3.3390 -5.7735 -6.8530 0
M  V30 95 Ga -3.2607 -6.1202 -5.4210 0
M  V30 96 Ba -3.2613 -6.2760 -3.9537 0
M  V30 97 Ba -4.5233 -2.5769 -7.4435 0
M  V30 98 Ga -4.4146 -1.4688 -6.4698 0
M  V30 99 Ba -4.3550 -0.3090 -5.5544 0
M  V30 END ATOM
M  V30 BEGIN BOND
M  V30 1 1 1 2
M  V30 2 1 1 3
M  V30 3 1 1 4
M  V30 4 1 1 5
M  V30 5 1 6 7
M  V30 6 1 6 8
M  V30 7 1 6 9
M  V30 8 1 6 10
M  V30 9 1 11 12
M  V30 10 1 11 13
M  V30 11 1 11 14
M  V30 12 1 11 15
M  V30 13 1 16 17
M  V30 14 1 16 18
M  V30 15 1 16 19
M  V30 16 1 16 20
M  V30 17 1 21 22
M  V30 18 1 21 23
M  V30 19 1 21 24
M  V30 20 1 21 25
M  V30 21 1 26 27
M  V30 22 1 26 28
M  V30 23 1 26 29
M  V30 24 1 26 30
M  V30 25 1 31 32
M  V30 26 1 31 33
M  V30 27 1 31 34
M  V30 28 1 31 35
M  V30 29 1 36 37
M  V30 30 1 36 38
M  V30 31 1 36 39
M  V30 32 1 36 40
M  V30 33 1 41 42
M  V30 34 1 41 43
M  V30 35 1 41 44
M  V30 36 1 41 45
M  V30 37 1 46 47
M  V30 38 1 47 48
M  V30 39 1 49 50
M  V30 40 1 50 51
M  V30 41 1 52 53
M  V30 42 1 53 54
M  V30 43 1 55 56
M  V30 44 1 56 57
M  V30 45 1 58 59
M  V30 46 1 59 60
M  V30 47 1 61 62
M  V30 48 1 62 63
M  V30 49 1 64 65
M  V30 50 1 65 66
M  V30 51 1 67 68
M  V30 52 1 68 69
M  V30 53 1 70 71
M  V30 54 1 71 72
M  V30 55 1 73 74
M  V30 56 1 74 75
M  V30 57 1 76 77
M  V30 58 1 77 78
M  V30 59 1 79 80
M  V30 60 1 80 81
M  V30 61 1 82 83
M  V30 62 1 83 84
M  V30 63 1 85 86
M  V30 64 1 86 87
M  V30 65 1 88 89
M  V30 66 1 89 90
M  V30 67 1 91 92
M  V30 68 1 92 93
M  V30 69 1 94 95
M  V30 70 1 95 96
M  V30 71 1 97 98
M  V30 72 1 98 99
M  V30 73 1 2 58
M  V30 74 1 3 67
M  V30 75 1 4 76
M  V30 76 1 5 52
M  V30 77 1 7 82
M  V30 78 1 8 78
M  V30 79 1 9 69
M  V30 80 1 10 64
M  V30 81 1 12 85
M  V30 82 1 13 61
M  V30 83 1 14 46
M  V30 84 1 15 55
M  V30 85 1 17 94
M  V30 86 1 18 97
M  V30 87 1 19 73
M  V30 88 1 20 48
M  V30 89 1 22 91
M  V30 90 1 23 79
M  V30 91 1 24 57
M  V30 92 1 25 60
M  V30 93 1 27 84
M  V30 94 1 28 88
M  V30 95 1 29 66
M  V30 96 1 30 81
M  V30 97 1 32 93
M  V30 98 1 33 70
M  V30 99 1 34 87
M  V30 100 1 35 99
M  V30 101 1 37 49
M  V30 102 1 38 63
M  V30 103 1 39 54
M  V30 104 1 40 90
M  V30 105 1 42 75
M  V30 106 1 43 96
M  V30 107 1 44 72
M  V30 108 1 45 51
M  V30 END BOND
M  V30 END CTAB
M  END

$$$$
