
     RDKit          3D

  0  0  0  0  0  0  0  0  0  0999 V3000
M  V30 BEGIN CTAB
M  V30 COUNTS 99 108 0 0 0
M  V30 BEGIN ATOM
M  V30 1 Pd -3.9824 -2.5572 2.6101 0
M  V30 2 Pb -4.2225 -2.2435 3.5254 0
M  V30 3 Pb -4.9138 -2.3918 2.3044 0
M  V30 4 Pb -3.0883 -2.8429 2.9379 0
M  V30 5 Pb -3.7013 -2.7385 1.6710 0
M  V30 6 Pd -1.9988 1.6435 4.3580 0
M  V30 7 Pb -2.6982 1.0729 4.7917 0
M  V30 8 Pb -1.3191 1.2837 4.9889 0
M  V30 9 Pb -2.6427 1.9435 3.6516 0
M  V30 10 Pb -1.2738 2.2075 3.9264 0
M  V30 11 Pd -2.5155 1.8381 -3.1422 0
M  V30 12 Pb -3.0315 2.0688 -2.3141 0
M  V30 13 Pb -2.4889 0.8822 -2.8522 0
M  V30 14 Pb -1.9351 1.6133 -3.9446 0
M  V30 15 Pb -2.5766 2.7772 -3.4624 0
M  V30 16 Pd -2.9514 -7.4047 4.2237 0
M  V30 17 Pb -3.1897 -7.4362 3.2351 0
M  V30 18 Pb -3.3435 -8.3126 4.3457 0
M  V30 19 Pb -3.1704 -7.2000 5.1775 0
M  V30 20 Pb -2.4554 -6.5403 4.1257 0
M  V30 21 Pd -7.6723 -6.2382 2.5854 0
M  V30 22 Pb -7.9953 -6.0077 3.5032 0
M  V30 23 Pb -7.8521 -7.1985 2.7812 0
M  V30 24 Pb -7.5968 -5.2699 2.3416 0
M  V30 25 Pb -6.9396 -6.5096 1.9339 0
M  V30 26 Pd 6.0286 6.1663 -3.8258 0
M  V30 27 Pb 5.7547 5.9397 -4.7615 0
M  V30 28 Pb 6.3221 6.4251 -2.9083 0
M  V30 29 Pb 5.0782 6.2122 -3.5331 0
M  V30 30 Pb 6.9553 5.8146 -3.9971 0
M  V30 31 Pd 3.1787 1.9127 1.4206 0
M  V30 32 Pb 2.4177 2.4181 1.8608 0
M  V30 33 Pb 3.0487 2.5037 0.6200 0
M  V30 34 Pb 3.8965 1.3471 0.9996 0
M  V30 35 Pb 3.2932 1.3920 2.2608 0
M  V30 36 Pd 2.2402 3.1426 -6.5565 0
M  V30 37 Pb 2.9980 3.7552 -6.7797 0
M  V30 38 Pb 1.6019 3.9015 -6.6237 0
M  V30 39 Pb 1.4637 2.5274 -6.3302 0
M  V30 40 Pb 2.8983 2.4011 -6.4257 0
M  V30 41 Pd 7.7736 1.5560 -1.9285 0
M  V30 42 Pb 7.2558 0.9355 -1.3402 0
M  V30 43 Pb 8.1120 2.0390 -1.1239 0
M  V30 44 Pb 7.3594 1.1338 -2.7346 0
M  V30 45 Pb 8.1960 2.2646 -2.5185 0
M  V30 46 Ag -3.7553 -8.9267 4.3868 0
M  V30 47 Fe -6.0166 -9.1236 3.7962 0
M  V30 48 Ag -7.8478 -7.9154 2.9666 0
M  V30 49 Ag 3.4218 1.8832 -6.2840 0
M  V30 50 Fe 5.2281 1.2825 -4.8641 0
M  V30 51 Ag 6.9966 0.8681 -3.3345 0
M  V30 52 Ag 4.4121 6.0557 -3.2335 0
M  V30 53 Fe 3.5562 4.5749 -1.5834 0
M  V30 54 Ag 2.8998 3.0187 0.0892 0
M  V30 55 Ag -3.4703 -2.7692 0.9615 0
M  V30 56 Fe -2.9578 -1.3883 -0.8983 0
M  V30 57 Ag -2.4993 0.1665 -2.6309 0
M  V30 58 Ag -3.0827 2.1409 3.0746 0
M  V30 59 Fe -3.2985 2.2173 0.7079 0
M  V30 60 Ag -3.3817 2.2329 -1.6685 0
M  V30 61 Ag -0.7097 1.0076 5.3076 0
M  V30 62 Fe 1.4890 0.8197 4.4755 0
M  V30 63 Ag 3.2515 1.0699 2.9281 0
M  V30 64 Ag -2.5216 3.4369 -3.7949 0
M  V30 65 Fe -0.9180 4.3461 -5.2635 0
M  V30 66 Ag 1.0577 4.3977 -6.5470 0
M  V30 67 Ag -3.6295 -6.9822 5.7311 0
M  V30 68 Fe -5.9040 -6.3459 5.4498 0
M  V30 69 Ag -7.9113 -5.9242 4.2453 0
M  V30 70 Ag 6.6081 6.4789 -2.2245 0
M  V30 71 Fe 7.6108 4.8183 -0.8901 0
M  V30 72 Ag 8.2464 2.5683 -0.6228 0
M  V30 73 Ba -0.7459 2.6704 3.6243 0
M  V30 74 Ga 0.5574 2.6653 2.8981 0
M  V30 75 Ba 1.8525 2.8245 2.1747 0
M  V30 76 Ba 5.5715 5.7939 -5.4749 0
M  V30 77 Ga 4.5618 4.9954 -6.1958 0
M  V30 78 Ba 3.5684 4.2099 -6.9525 0
M  V30 79 Ba -1.5073 1.4046 -4.5436 0
M  V30 80 Ga -0.2978 1.7965 -5.3271 0
M  V30 81 Ba 0.8806 2.0462 -6.2100 0
M  V30 82 Ba -2.4571 -3.1413 3.1957 0
M  V30 83 Ga -2.2173 -4.5241 3.6408 0
M  V30 84 Ba -2.0344 -5.9196 4.0735 0
M  V30 85 Ba -3.5171 -7.4137 2.5353 0
M  V30 86 Ga -4.9010 -7.0731 2.0415 0
M  V30 87 Ba -6.2924 -6.7279 1.5723 0
M  V30 88 Ba -5.6274 -2.3579 2.0956 0
M  V30 89 Ga -6.6334 -3.4328 2.1083 0
M  V30 90 Ba -7.5980 -4.5448 2.1428 0
M  V30 91 Ba -4.3634 -1.9194 4.1835 0
M  V30 92 Ga -3.8148 -0.6543 4.7034 0
M  V30 93 Ba -3.2017 0.6204 5.1179 0
M  V30 94 Ba 4.4067 0.8450 0.7552 0
M  V30 95 Ga 5.6171 0.7145 -0.0854 0
M  V30 96 Ba 6.8290 0.4975 -0.9060 0
M  V30 97 Ba 7.6137 5.4429 -4.0591 0
M  V30 98 Ga 8.0624 4.1302 -3.5105 0
M  V30 99 Ba 8.4966 2.8155 -2.9553 0
M  V30 END ATOM
M  V30 BEGIN BOND
M  V30 1 1 1 2
M  V30 2 1 1 3
M  V30 3 1 1 4
M  V30 4 1 1 5
M  V30 5 1 6 7
M  V30 6 1 6 8
M  V30 7 1 6 9
M  V30 8 1 6 10
M  V30 9 1 11 12
M  V30 10 1 11 13
M  V30 11 1 11 14
M  V30 12 1 11 15
M  V30 13 1 16 17
M  V30 14 1 16 18
M  V30 15 1 16 19
M  V30 16 1 16 20
M  V30 17 1 21 22
M  V30 18 1 21 23
M  V30 19 1 21 24
M  V30 20 1 21 25
M  V30 21 1 26 27
M  V30 22 1 26 28
M  V30 23 1 26 29
M  V30 24 1 26 30
M  V30 25 1 31 32
M  V30 26 1 31 33
M  V30 27 1 31 34
M  V30 28 1 31 35
M  V30 29 1 36 37
M  V30 30 1 36 38
M  V30 31 1 36 39
M  V30 32 1 36 40
M  V30 33 1 41 42
M  V30 34 1 41 43
M  V30 35 1 41 44
M  V30 36 1 41 45
M  V30 37 1 46 47
M  V30 38 1 47 48
M  V30 39 1 49 50
M  V30 40 1 50 51
M  V30 41 1 52 53
M  V30 42 1 53 54
M  V30 43 1 55 56
M  V30 44 1 56 57
M  V30 45 1 58 59
M  V30 46 1 59 60
M  V30 47 1 61 62
M  V30 48 1 62 63
M  V30 49 1 64 65
M  V30 50 1 65 66
M  V30 51 1 67 68
M  V30 52 1 68 69
M  V30 53 1 70 71
M  V30 54 1 71 72
M  V30 55 1 73 74
M  V30 56 1 74 75
M  V30 57 1 76 77
M  V30 58 1 77 78
M  V30 59 1 79 80
M  V30 60 1 80 81
M  V30 61 1 82 83
M  V30 62 1 83 84
M  V30 63 1 85 86
M  V30 64 1 86 87
M  V30 65 1 88 89
M  V30 66 1 89 90
M  V30 67 1 91 92
M  V30 68 1 92 93
M  V30 69 1 94 95
M  V30 70 1 95 96
M  V30 71 1 97 98
M  V30 72 1 98 99
M  V30 73 1 2 91
M  V30 74 1 3 88
M  V30 75 1 4 82
M  V30 76 1 5 55
M  V30 77 1 7 93
M  V30 78 1 8 61
M  V30 79 1 9 58
M  V30 80 1 10 73
M  V30 81 1 12 60
M  V30 82 1 13 57
M  V30 83 1 14 79
M  V30 84 1 15 64
M  V30 85 1 17 85
M  V30 86 1 18 46
M  V30 87 1 19 67
M  V30 88 1 20 84
M  V30 89 1 22 69
M  V30 90 1 23 48
M  V30 91 1 24 90
M  V30 92 1 25 87
M  V30 93 1 27 76
M  V30 94 1 28 70
M  V30 95 1 29 52
M  V30 96 1 30 97
M  V30 97 1 32 75
M  V30 98 1 33 54
M  V30 99 1 34 94
M  V30 100 1 35 63
M  V30 101 1 37 78
M  V30 102 1 38 66
M  V30 103 1 39 81
M  V30 104 1 40 49
M  V30 105 1 42 96
M  V30 106 1 43 72
M  V30 107 1 44 51
M  V30 108 1 45 99
M  V30 END BOND
M  V30 END CTAB
M  END

$$$$
