
     RDKit          3D

  0  0  0  0  0  0  0  0  0  0999 V3000
M  V30 BEGIN CTAB
M  V30 COUNTS 99 108 0 0 0
M  V30 BEGIN ATOM
M  V30 1 Pd 3.4914 3.7765 0.2007 0
M  V30 2 Pb 3.1888 2.8437 0.3867 0
M  V30 3 Pb 3.7837 4.7229 0.0413 0
M  V30 4 Pb 3.0842 3.7395 -0.7144 0
M  V30 5 Pb 3.8897 3.7600 1.1189 0
M  V30 6 Pd -3.5024 4.7572 -0.7698 0
M  V30 7 Pb -3.4470 3.7876 -0.9947 0
M  V30 8 Pb -3.3269 5.0289 -1.7131 0
M  V30 9 Pb -3.6180 4.4729 0.1804 0
M  V30 10 Pb -3.4002 5.7258 -0.5028 0
M  V30 11 Pd -0.1685 -7.1558 2.2439 0
M  V30 12 Pb 0.6911 -6.7290 2.5647 0
M  V30 13 Pb -0.6937 -6.5857 2.8825 0
M  V30 14 Pb -0.9976 -7.5146 1.8137 0
M  V30 15 Pb 0.3773 -7.7421 1.6523 0
M  V30 16 Pd -4.5219 -5.0748 -3.2954 0
M  V30 17 Pb -4.3931 -5.9144 -2.7665 0
M  V30 18 Pb -4.5692 -4.1871 -3.7555 0
M  V30 19 Pb -5.1083 -4.7561 -2.5559 0
M  V30 20 Pb -3.8095 -5.3148 -3.9534 0
M  V30 21 Pd -2.1205 -2.0509 2.5981 0
M  V30 22 Pb -2.1803 -1.3790 1.8588 0
M  V30 23 Pb -2.0769 -2.8063 3.2527 0
M  V30 24 Pb -3.0243 -2.3573 2.3039 0
M  V30 25 Pb -1.2083 -1.7473 2.8898 0
M  V30 26 Pd 0.7205 -0.7802 -5.3173 0
M  V30 27 Pb -0.2613 -0.6137 -5.4088 0
M  V30 28 Pb 1.6766 -1.0079 -5.1383 0
M  V30 29 Pb 0.9016 0.1680 -5.0480 0
M  V30 30 Pb 0.5167 -1.7347 -5.5413 0
M  V30 31 Pd 4.2172 -4.0775 0.1808 0
M  V30 32 Pb 3.8376 -3.1995 0.4665 0
M  V30 33 Pb 4.4895 -3.6658 -0.6881 0
M  V30 34 Pb 4.4920 -4.9788 -0.1401 0
M  V30 35 Pb 3.8677 -4.5034 1.0320 0
M  V30 36 Pd 1.0174 2.4445 4.3399 0
M  V30 37 Pb 1.0543 1.4513 4.2020 0
M  V30 38 Pb 0.9903 3.4390 4.4249 0
M  V30 39 Pb 0.0204 2.4429 4.3036 0
M  V30 40 Pb 2.0136 2.5232 4.2942 0
M  V30 41 Pd 0.7948 8.2724 -0.1521 0
M  V30 42 Pb 0.6851 8.3319 -1.1412 0
M  V30 43 Pb 1.7826 8.1416 -0.2441 0
M  V30 44 Pb 0.8711 8.1314 0.8329 0
M  V30 45 Pb -0.2128 8.2976 -0.0633 0
M  V30 46 Ag -3.3229 3.0552 -1.0787 0
M  V30 47 Fe -2.8181 1.0437 0.0785 0
M  V30 48 Ag -2.3040 -0.9584 1.2482 0
M  V30 49 Ag 2.9734 2.1549 0.5844 0
M  V30 50 Fe 3.2671 -0.2000 0.5961 0
M  V30 51 Ag 3.4940 -2.5616 0.6545 0
M  V30 52 Ag -5.4202 -4.5053 -1.9266 0
M  V30 53 Fe -4.7310 -3.5275 0.1203 0
M  V30 54 Ag -3.6829 -2.5730 2.0212 0
M  V30 55 Ag -4.5008 -3.5177 -4.0886 0
M  V30 56 Fe -2.8764 -1.9460 -4.8201 0
M  V30 57 Ag -1.0111 -0.6071 -5.4298 0
M  V30 58 Ag 0.8834 -8.0794 1.2258 0
M  V30 59 Fe 2.8780 -7.3193 0.2242 0
M  V30 60 Ag 4.5006 -5.6980 -0.3176 0
M  V30 61 Ag -3.0660 5.3355 -2.3378 0
M  V30 62 Fe -1.2979 6.8706 -2.6244 0
M  V30 63 Ag 0.4553 8.2407 -1.8415 0
M  V30 64 Ag -3.2172 -5.3635 -4.4097 0
M  V30 65 Fe -1.3961 -4.0280 -5.1462 0
M  V30 66 Ag 0.2888 -2.4384 -5.6735 0
M  V30 67 Ag -1.5797 -7.7513 1.4025 0
M  V30 68 Fe -2.9889 -7.2175 -0.4348 0
M  V30 69 Ag -4.2810 -6.4827 -2.2887 0
M  V30 70 Ag -3.6403 4.1996 0.8769 0
M  V30 71 Fe -2.3003 3.3359 2.6338 0
M  V30 72 Ag -0.7155 2.5305 4.2048 0
M  V30 73 Ag 2.7753 3.6852 -1.3982 0
M  V30 74 Fe 1.9070 2.3032 -3.1271 0
M  V30 75 Ag 1.0515 0.8687 -4.8194 0
M  V30 76 Ag 0.9901 4.1872 4.4324 0
M  V30 77 Fe 0.9522 6.1431 3.0901 0
M  V30 78 Ag 0.9053 7.9546 1.5587 0
M  V30 79 Ag 2.3678 -1.2089 -4.9316 0
M  V30 80 Fe 3.6103 -2.2606 -3.2039 0
M  V30 81 Ag 4.6241 -3.3447 -1.3515 0
M  V30 82 Ba -0.5146 -1.5718 3.1292 0
M  V30 83 Ga 0.2578 -0.3998 3.5988 0
M  V30 84 Ba 1.1106 0.7099 4.0803 0
M  V30 85 Ba -3.2836 6.4521 -0.3097 0
M  V30 86 Ga -2.1101 7.3580 -0.1600 0
M  V30 87 Ba -0.9717 8.3051 0.0041 0
M  V30 88 Ba 1.3445 -6.4050 2.7868 0
M  V30 89 Ga 2.4570 -5.6114 2.1888 0
M  V30 90 Ba 3.6117 -4.8157 1.6803 0
M  V30 91 Ba 4.1555 3.6582 1.8144 0
M  V30 92 Ga 3.4968 3.1671 3.0419 0
M  V30 93 Ba 2.7451 2.6718 4.2129 0
M  V30 94 Ba 3.9915 5.4363 -0.0822 0
M  V30 95 Ga 3.2718 6.7224 -0.1944 0
M  V30 96 Ba 2.5155 7.9879 -0.2997 0
M  V30 97 Ba -1.0551 -6.1722 3.3996 0
M  V30 98 Ga -1.5531 -4.7874 3.5425 0
M  V30 99 Ba -2.0583 -3.4070 3.7025 0
M  V30 END ATOM
M  V30 BEGIN BOND
M  V30 1 1 1 2
M  V30 2 1 1 3
M  V30 3 1 1 4
M  V30 4 1 1 5
M  V30 5 1 6 7
M  V30 6 1 6 8
M  V30 7 1 6 9
M  V30 8 1 6 10
M  V30 9 1 11 12
M  V30 10 1 11 13
M  V30 11 1 11 14
M  V30 12 1 11 15
M  V30 13 1 16 17
M  V30 14 1 16 18
M  V30 15 1 16 19
M  V30 16 1 16 20
M  V30 17 1 21 22
M  V30 18 1 21 23
M  V30 19 1 21 24
M  V30 20 1 21 25
M  V30 21 1 26 27
M  V30 22 1 26 28
M  V30 23 1 26 29
M  V30 24 1 26 30
M  V30 25 1 31 32
M  V30 26 1 31 33
M  V30 27 1 31 34
M  V30 28 1 31 35
M  V30 29 1 36 37
M  V30 30 1 36 38
M  V30 31 1 36 39
M  V30 32 1 36 40
M  V30 33 1 41 42
M  V30 34 1 41 43
M  V30 35 1 41 44
M  V30 36 1 41 45
M  V30 37 1 46 47
M  V30 38 1 47 48
M  V30 39 1 49 50
M  V30 40 1 50 51
M  V30 41 1 52 53
M  V30 42 1 53 54
M  V30 43 1 55 56
M  V30 44 1 56 57
M  V30 45 1 58 59
M  V30 46 1 59 60
M  V30 47 1 61 62
M  V30 48 1 62 63
M  V30 49 1 64 65
M  V30 50 1 65 66
M  V30 51 1 67 68
M  V30 52 1 68 69
M  V30 53 1 70 71
M  V30 54 1 71 72
M  V30 55 1 73 74
M  V30 56 1 74 75
M  V30 57 1 76 77
M  V30 58 1 77 78
M  V30 59 1 79 80
M  V30 60 1 80 81
M  V30 61 1 82 83
M  V30 62 1 83 84
M  V30 63 1 85 86
M  V30 64 1 86 87
M  V30 65 1 88 89
M  V30 66 1 89 90
M  V30 67 1 91 92
M  V30 68 1 92 93
M  V30 69 1 94 95
M  V30 70 1 95 96
M  V30 71 1 97 98
M  V30 72 1 98 99
M  V30 73 1 2 49
M  V30 74 1 3 94
M  V30 75 1 4 73
M  V30 76 1 5 91
M  V30 77 1 7 46
M  V30 78 1 8 61
M  V30 79 1 9 70
M  V30 80 1 10 85
M  V30 81 1 12 88
M  V30 82 1 13 97
M  V30 83 1 14 67
M  V30 84 1 15 58
M  V30 85 1 17 69
M  V30 86 1 18 55
M  V30 87 1 19 52
M  V30 88 1 20 64
M  V30 89 1 22 48
M  V30 90 1 23 99
M  V30 91 1 24 54
M  V30 92 1 25 82
M  V30 93 1 27 57
M  V30 94 1 28 79
M  V30 95 1 29 75
M  V30 96 1 30 66
M  V30 97 1 32 51
M  V30 98 1 33 81
M  V30 99 1 34 60
M  V30 100 1 35 90
M  V30 101 1 37 84
M  V30 102 1 38 76
M  V30 103 1 39 72
M  V30 104 1 40 93
M  V30 105 1 42 63
M  V30 106 1 43 96
M  V30 107 1 44 78
M  V30 108 1 45 87
M  V30 END BOND
M  V30 END CTAB
M  END

$$$$
