
     RDKit          3D

  0  0  0  0  0  0  0  0  0  0999 V3000
M  V30 BEGIN CTAB
M  V30 COUNTS 99 108 0 0 0
M  V30 BEGIN ATOM
M  V30 1 Pd -5.3723 0.1738 -1.5142 0
M  V30 2 Pb -4.9050 0.0029 -2.3803 0
M  V30 3 Pb -5.9015 0.3529 -0.6799 0
M  V30 4 Pb -5.2062 1.1593 -1.5997 0
M  V30 5 Pb -5.5155 -0.8166 -1.4484 0
M  V30 6 Pd -0.6575 -1.1065 4.8291 0
M  V30 7 Pb -0.0546 -0.8352 4.0783 0
M  V30 8 Pb -1.3348 -1.3115 5.5560 0
M  V30 9 Pb -0.6548 -2.0633 4.5253 0
M  V30 10 Pb -0.6732 -0.1562 5.1297 0
M  V30 11 Pd 6.6105 -0.6807 -2.9549 0
M  V30 12 Pb 6.3561 0.0683 -3.5687 0
M  V30 13 Pb 6.8024 -1.4332 -2.3228 0
M  V30 14 Pb 7.2278 -0.0760 -2.4520 0
M  V30 15 Pb 5.9449 -1.2398 -3.4463 0
M  V30 16 Pd 5.2723 2.7576 0.5695 0
M  V30 17 Pb 6.1915 2.5942 0.2109 0
M  V30 18 Pb 4.9943 3.2081 -0.2757 0
M  V30 19 Pb 5.5175 2.2436 1.3893 0
M  V30 20 Pb 4.3281 2.8787 0.8860 0
M  V30 21 Pd 3.9795 -1.9738 1.2373 0
M  V30 22 Pb 3.2068 -1.4178 1.5424 0
M  V30 23 Pb 4.7702 -2.4636 0.8691 0
M  V30 24 Pb 4.5728 -1.4624 1.8575 0
M  V30 25 Pb 3.3617 -2.4510 0.6132 0
M  V30 26 Pd -1.2324 3.9719 -2.5864 0
M  V30 27 Pb -0.2646 4.0983 -2.7981 0
M  V30 28 Pb -1.4424 4.0983 -3.5556 0
M  V30 29 Pb -2.2064 3.8771 -2.3623 0
M  V30 30 Pb -0.9511 3.8322 -1.6349 0
M  V30 31 Pd 0.4985 1.0725 -6.3772 0
M  V30 32 Pb -0.3823 0.6143 -6.2907 0
M  V30 33 Pb 0.0051 1.9378 -6.4681 0
M  V30 34 Pb 0.9854 0.2119 -6.2327 0
M  V30 35 Pb 1.3934 1.5193 -6.3746 0
M  V30 36 Pd -3.0862 -4.2547 0.9504 0
M  V30 37 Pb -2.3086 -4.1910 0.3266 0
M  V30 38 Pb -3.8464 -4.3251 1.5900 0
M  V30 39 Pb -2.4355 -4.3895 1.7016 0
M  V30 40 Pb -3.7542 -4.0779 0.2251 0
M  V30 41 Pd -6.0232 -0.0339 5.9491 0
M  V30 42 Pb -5.2703 -0.4576 6.4739 0
M  V30 43 Pb -6.6238 0.3498 5.2504 0
M  V30 44 Pb -6.3009 -0.9429 5.6567 0
M  V30 45 Pb -5.6708 0.8669 6.1880 0
M  V30 46 Ag -4.5895 -0.1506 -3.0421 0
M  V30 47 Fe -2.8325 0.0558 -4.6232 0
M  V30 48 Ag -1.0469 0.2977 -6.1665 0
M  V30 49 Ag 2.8531 -2.7715 0.1656 0
M  V30 50 Fe 0.6008 -3.4904 -0.0502 0
M  V30 51 Ag -1.6799 -4.1491 -0.0783 0
M  V30 52 Ag 4.7017 3.5049 -0.8958 0
M  V30 53 Fe 2.6416 3.9060 -2.0013 0
M  V30 54 Ag 0.4690 4.1984 -2.9078 0
M  V30 55 Ag 5.3994 -1.5748 -3.8343 0
M  V30 56 Fe 3.3782 -1.1286 -4.9955 0
M  V30 57 Ag 1.4004 -0.3933 -6.0819 0
M  V30 58 Ag -0.8343 0.5281 5.3700 0
M  V30 59 Fe -2.8906 1.5045 5.9832 0
M  V30 60 Ag -5.2240 1.4461 6.3078 0
M  V30 61 Ag 6.0903 0.5947 -4.0341 0
M  V30 62 Fe 4.1596 1.3004 -5.2258 0
M  V30 63 Ag 2.0953 1.7745 -6.3025 0
M  V30 64 Ag 3.5984 2.9681 1.0508 0
M  V30 65 Fe 1.4285 3.3454 0.1518 0
M  V30 66 Ag -0.6408 3.7274 -0.9574 0
M  V30 67 Ag -4.4106 -4.3380 2.0772 0
M  V30 68 Fe -5.5339 -3.1033 3.7568 0
M  V30 69 Ag -6.4230 -1.6202 5.3744 0
M  V30 70 Ag -6.3211 0.5249 -0.0773 0
M  V30 71 Fe -6.7125 0.5835 2.2671 0
M  V30 72 Ag -6.9777 0.5738 4.6295 0
M  V30 73 Ba 0.3437 -0.5503 3.5097 0
M  V30 74 Ga 1.5111 -0.8256 2.6512 0
M  V30 75 Ba 2.6448 -0.9532 1.7163 0
M  V30 76 Ba 5.6960 1.8015 1.9659 0
M  V30 77 Ga 5.3750 0.3826 2.1942 0
M  V30 78 Ba 4.9890 -1.0339 2.3092 0
M  V30 79 Ba -1.8399 -1.4266 6.1184 0
M  V30 80 Ga -3.2614 -1.1005 6.4368 0
M  V30 81 Ba -4.6768 -0.8017 6.8056 0
M  V30 82 Ba 7.6519 0.4078 -2.0669 0
M  V30 83 Ga 7.3015 1.4306 -1.0636 0
M  V30 84 Ba 6.8677 2.4290 -0.0685 0
M  V30 85 Ba -0.6485 -2.7861 4.3115 0
M  V30 86 Ga -1.3056 -3.6186 3.2799 0
M  V30 87 Ba -1.9423 -4.4840 2.2626 0
M  V30 88 Ba -5.1015 1.9029 -1.6543 0
M  V30 89 Ga -3.9920 2.8412 -1.9325 0
M  V30 90 Ba -2.9421 3.8485 -2.2004 0
M  V30 91 Ba -5.5970 -1.5651 -1.4621 0
M  V30 92 Ga -4.9354 -2.7409 -0.8573 0
M  V30 93 Ba -4.3006 -3.9418 -0.2734 0
M  V30 94 Ba -1.5299 4.1789 -4.2960 0
M  V30 95 Ga -0.9896 3.3994 -5.4260 0
M  V30 96 Ba -0.4087 2.5634 -6.4937 0
M  V30 97 Ba 6.9066 -1.9970 -1.8371 0
M  V30 98 Ga 6.1660 -2.4213 -0.6324 0
M  V30 99 Ba 5.3748 -2.7832 0.5604 0
M  V30 END ATOM
M  V30 BEGIN BOND
M  V30 1 1 1 2
M  V30 2 1 1 3
M  V30 3 1 1 4
M  V30 4 1 1 5
M  V30 5 1 6 7
M  V30 6 1 6 8
M  V30 7 1 6 9
M  V30 8 1 6 10
M  V30 9 1 11 12
M  V30 10 1 11 13
M  V30 11 1 11 14
M  V30 12 1 11 15
M  V30 13 1 16 17
M  V30 14 1 16 18
M  V30 15 1 16 19
M  V30 16 1 16 20
M  V30 17 1 21 22
M  V30 18 1 21 23
M  V30 19 1 21 24
M  V30 20 1 21 25
M  V30 21 1 26 27
M  V30 22 1 26 28
M  V30 23 1 26 29
M  V30 24 1 26 30
M  V30 25 1 31 32
M  V30 26 1 31 33
M  V30 27 1 31 34
M  V30 28 1 31 35
M  V30 29 1 36 37
M  V30 30 1 36 38
M  V30 31 1 36 39
M  V30 32 1 36 40
M  V30 33 1 41 42
M  V30 34 1 41 43
M  V30 35 1 41 44
M  V30 36 1 41 45
M  V30 37 1 46 47
M  V30 38 1 47 48
M  V30 39 1 49 50
M  V30 40 1 50 51
M  V30 41 1 52 53
M  V30 42 1 53 54
M  V30 43 1 55 56
M  V30 44 1 56 57
M  V30 45 1 58 59
M  V30 46 1 59 60
M  V30 47 1 61 62
M  V30 48 1 62 63
M  V30 49 1 64 65
M  V30 50 1 65 66
M  V30 51 1 67 68
M  V30 52 1 68 69
M  V30 53 1 70 71
M  V30 54 1 71 72
M  V30 55 1 73 74
M  V30 56 1 74 75
M  V30 57 1 76 77
M  V30 58 1 77 78
M  V30 59 1 79 80
M  V30 60 1 80 81
M  V30 61 1 82 83
M  V30 62 1 83 84
M  V30 63 1 85 86
M  V30 64 1 86 87
M  V30 65 1 88 89
M  V30 66 1 89 90
M  V30 67 1 91 92
M  V30 68 1 92 93
M  V30 69 1 94 95
M  V30 70 1 95 96
M  V30 71 1 97 98
M  V30 72 1 98 99
M  V30 73 1 2 46
M  V30 74 1 3 70
M  V30 75 1 4 88
M  V30 76 1 5 91
M  V30 77 1 7 73
M  V30 78 1 8 79
M  V30 79 1 9 85
M  V30 80 1 10 58
M  V30 81 1 12 61
M  V30 82 1 13 97
M  V30 83 1 14 82
M  V30 84 1 15 55
M  V30 85 1 17 84
M  V30 86 1 18 52
M  V30 87 1 19 76
M  V30 88 1 20 64
M  V30 89 1 22 75
M  V30 90 1 23 99
M  V30 91 1 24 78
M  V30 92 1 25 49
M  V30 93 1 27 54
M  V30 94 1 28 94
M  V30 95 1 29 90
M  V30 96 1 30 66
M  V30 97 1 32 48
M  V30 98 1 33 96
M  V30 99 1 34 57
M  V30 100 1 35 63
M  V30 101 1 37 51
M  V30 102 1 38 67
M  V30 103 1 39 87
M  V30 104 1 40 93
M  V30 105 1 42 81
M  V30 106 1 43 72
M  V30 107 1 44 69
M  V30 108 1 45 60
M  V30 END BOND
M  V30 END CTAB
M  END

$$$$
