
     RDKit          3D

  0  0  0  0  0  0  0  0  0  0999 V3000
M  V30 BEGIN CTAB
M  V30 COUNTS 99 108 0 0 0
M  V30 BEGIN ATOM
M  V30 1 Pd -3.3493 1.0995 -1.0194 0
M  V30 2 Pb -3.4831 1.3411 -0.0531 0
M  V30 3 Pb -3.9292 1.8597 -1.3221 0
M  V30 4 Pb -2.7589 0.3402 -0.7542 0
M  V30 5 Pb -3.1220 0.9049 -1.9719 0
M  V30 6 Pd -1.0436 -3.5267 -3.4316 0
M  V30 7 Pb -0.0657 -3.2944 -3.4614 0
M  V30 8 Pb -0.8861 -4.2379 -4.1142 0
M  V30 9 Pb -1.1387 -2.9304 -2.6309 0
M  V30 10 Pb -1.9194 -3.9477 -3.2164 0
M  V30 11 Pd 2.5312 -5.6115 -0.2339 0
M  V30 12 Pb 2.6408 -4.8494 0.4043 0
M  V30 13 Pb 2.4409 -6.3442 -0.9067 0
M  V30 14 Pb 2.2892 -6.2390 0.5086 0
M  V30 15 Pb 2.6325 -4.9561 -0.9973 0
M  V30 16 Pd -1.7186 -0.6510 4.0793 0
M  V30 17 Pb -2.5038 -1.2246 3.8534 0
M  V30 18 Pb -0.9204 -0.1083 4.3514 0
M  V30 19 Pb -1.2866 -1.4425 4.5174 0
M  V30 20 Pb -2.1807 0.1286 3.6437 0
M  V30 21 Pd 4.5221 1.6495 -0.3294 0
M  V30 22 Pb 4.5109 1.0209 -1.1090 0
M  V30 23 Pb 4.5256 2.3008 0.4307 0
M  V30 24 Pb 4.2280 0.9098 0.2780 0
M  V30 25 Pb 4.8137 2.3751 -0.9536 0
M  V30 26 Pd -1.8105 -5.7109 2.9148 0
M  V30 27 Pb -1.3407 -5.3010 3.6954 0
M  V30 28 Pb -2.5654 -5.0705 3.0488 0
M  V30 29 Pb -1.0287 -6.3246 2.7666 0
M  V30 30 Pb -2.2913 -6.0206 2.0962 0
M  V30 31 Pd -2.6684 6.1409 -0.7445 0
M  V30 32 Pb -1.8647 6.4096 -0.1837 0
M  V30 33 Pb -2.1230 6.2102 -1.5801 0
M  V30 34 Pb -3.2146 6.0598 0.0810 0
M  V30 35 Pb -3.4288 5.7400 -1.2504 0
M  V30 36 Pd 2.5256 2.6123 -4.7927 0
M  V30 37 Pb 2.0090 3.4635 -4.8661 0
M  V30 38 Pb 3.3184 3.1114 -4.4473 0
M  V30 39 Pb 1.6993 2.1117 -5.0447 0
M  V30 40 Pb 3.0095 1.7579 -4.6080 0
M  V30 41 Pd 1.0034 4.1586 3.3610 0
M  V30 42 Pb 1.1689 3.3468 3.9161 0
M  V30 43 Pb 0.0856 4.2005 3.7375 0
M  V30 44 Pb 0.7824 4.9479 2.7578 0
M  V30 45 Pb 1.9522 4.1394 3.0387 0
M  V30 46 Ag 2.7417 -4.2397 0.8297 0
M  V30 47 Fe 3.3641 -1.9469 0.8414 0
M  V30 48 Ag 4.0060 0.3369 0.7102 0
M  V30 49 Ag -2.8632 0.7924 -2.6647 0
M  V30 50 Fe -0.9758 1.2003 -4.0431 0
M  V30 51 Ag 1.0452 1.7642 -5.1505 0
M  V30 52 Ag -2.4536 -4.3682 -2.9109 0
M  V30 53 Fe -2.7823 -5.3624 -0.7839 0
M  V30 54 Ag -2.6787 -6.1149 1.4624 0
M  V30 55 Ag -1.7074 6.2452 -2.2036 0
M  V30 56 Fe -0.0640 5.2291 -3.5833 0
M  V30 57 Ag 1.5856 4.0802 -4.8463 0
M  V30 58 Ag -0.6412 -4.8690 -4.4184 0
M  V30 59 Fe 0.8975 -6.2957 -3.3455 0
M  V30 60 Ag 2.2982 -6.7616 -1.5068 0
M  V30 61 Ag -3.4997 5.9309 0.7503 0
M  V30 62 Fe -2.4651 5.0941 2.6896 0
M  V30 63 Ag -0.6255 4.2934 3.9177 0
M  V30 64 Ba -1.2522 6.6001 0.2355 0
M  V30 65 Ga -0.3479 6.0212 1.2774 0
M  V30 66 Ba 0.6215 5.5553 2.3171 0
M  V30 67 Ba -3.0757 -1.6851 3.7089 0
M  V30 68 Ga -3.1307 -3.1271 3.4142 0
M  V30 69 Ba -3.1185 -4.5711 3.1240 0
M  V30 70 Ba -4.3468 2.4279 -1.5863 0
M  V30 71 Ga -4.2022 3.8966 -1.6016 0
M  V30 72 Ba -3.9846 5.3559 -1.5709 0
M  V30 73 Ba -0.2968 0.2296 4.6053 0
M  V30 74 Ga 0.4631 1.4845 4.4464 0
M  V30 75 Ba 1.2550 2.7233 4.3192 0
M  V30 76 Ba -0.9718 -2.0405 4.8485 0
M  V30 77 Ga -0.9704 -3.4915 4.5756 0
M  V30 78 Ba -1.0042 -4.9319 4.2540 0
M  V30 79 Ba 4.5435 2.8113 0.9811 0
M  V30 80 Ga 3.5814 3.4538 1.8995 0
M  V30 81 Ba 2.6798 4.1389 2.8479 0
M  V30 82 Ba 0.6841 -3.2033 -3.4043 0
M  V30 83 Ga 1.6881 -3.8204 -2.4939 0
M  V30 84 Ba 2.6685 -4.4546 -1.5696 0
M  V30 85 Ba -3.5407 1.5572 0.6682 0
M  V30 86 Ga -3.0442 1.0991 1.9876 0
M  V30 87 Ba -2.5774 0.6924 3.3343 0
M  V30 88 Ba 5.0180 2.8957 -1.4539 0
M  V30 89 Ga 4.4971 3.2192 -2.7946 0
M  V30 90 Ba 3.8964 3.4562 -4.1197 0
M  V30 91 Ba -2.3045 -0.2280 -0.5806 0
M  V30 92 Ga -1.7530 -1.3838 -1.3147 0
M  V30 93 Ba -1.1573 -2.5626 -1.9736 0
M  V30 94 Ba 4.4973 0.5850 -1.7210 0
M  V30 95 Ga 3.9511 0.8098 -3.0733 0
M  V30 96 Ba 3.3697 1.1383 -4.3892 0
M  V30 97 Ba 2.0431 -6.7051 1.0454 0
M  V30 98 Ga 0.8133 -6.7391 1.8685 0
M  V30 99 Ba -0.4205 -6.7646 2.6861 0
M  V30 END ATOM
M  V30 BEGIN BOND
M  V30 1 1 1 2
M  V30 2 1 1 3
M  V30 3 1 1 4
M  V30 4 1 1 5
M  V30 5 1 6 7
M  V30 6 1 6 8
M  V30 7 1 6 9
M  V30 8 1 6 10
M  V30 9 1 11 12
M  V30 10 1 11 13
M  V30 11 1 11 14
M  V30 12 1 11 15
M  V30 13 1 16 17
M  V30 14 1 16 18
M  V30 15 1 16 19
M  V30 16 1 16 20
M  V30 17 1 21 22
M  V30 18 1 21 23
M  V30 19 1 21 24
M  V30 20 1 21 25
M  V30 21 1 26 27
M  V30 22 1 26 28
M  V30 23 1 26 29
M  V30 24 1 26 30
M  V30 25 1 31 32
M  V30 26 1 31 33
M  V30 27 1 31 34
M  V30 28 1 31 35
M  V30 29 1 36 37
M  V30 30 1 36 38
M  V30 31 1 36 39
M  V30 32 1 36 40
M  V30 33 1 41 42
M  V30 34 1 41 43
M  V30 35 1 41 44
M  V30 36 1 41 45
M  V30 37 1 46 47
M  V30 38 1 47 48
M  V30 39 1 49 50
M  V30 40 1 50 51
M  V30 41 1 52 53
M  V30 42 1 53 54
M  V30 43 1 55 56
M  V30 44 1 56 57
M  V30 45 1 58 59
M  V30 46 1 59 60
M  V30 47 1 61 62
M  V30 48 1 62 63
M  V30 49 1 64 65
M  V30 50 1 65 66
M  V30 51 1 67 68
M  V30 52 1 68 69
M  V30 53 1 70 71
M  V30 54 1 71 72
M  V30 55 1 73 74
M  V30 56 1 74 75
M  V30 57 1 76 77
M  V30 58 1 77 78
M  V30 59 1 79 80
M  V30 60 1 80 81
M  V30 61 1 82 83
M  V30 62 1 83 84
M  V30 63 1 85 86
M  V30 64 1 86 87
M  V30 65 1 88 89
M  V30 66 1 89 90
M  V30 67 1 91 92
M  V30 68 1 92 93
M  V30 69 1 94 95
M  V30 70 1 95 96
M  V30 71 1 97 98
M  V30 72 1 98 99
M  V30 73 1 2 85
M  V30 74 1 3 70
M  V30 75 1 4 91
M  V30 76 1 5 49
M  V30 77 1 7 82
M  V30 78 1 8 58
M  V30 79 1 9 93
M  V30 80 1 10 52
M  V30 81 1 12 46
M  V30 82 1 13 60
M  V30 83 1 14 97
M  V30 84 1 15 84
M  V30 85 1 17 67
M  V30 86 1 18 73
M  V30 87 1 19 76
M  V30 88 1 20 87
M  V30 89 1 22 94
M  V30 90 1 23 79
M  V30 91 1 24 48
M  V30 92 1 25 88
M  V30 93 1 27 78
M  V30 94 1 28 69
M  V30 95 1 29 99
M  V30 96 1 30 54
M  V30 97 1 32 64
M  V30 98 1 33 55
M  V30 99 1 34 61
M  V30 100 1 35 72
M  V30 101 1 37 57
M  V30 102 1 38 90
M  V30 103 1 39 51
M  V30 104 1 40 96
M  V30 105 1 42 75
M  V30 106 1 43 63
M  V30 107 1 44 66
M  V30 108 1 45 81
M  V30 END BOND
M  V30 END CTAB
M  END

$$$$
