
     RDKit          3D

  0  0  0  0  0  0  0  0  0  0999 V3000
M  V30 BEGIN CTAB
M  V30 COUNTS 99 108 0 0 0
M  V30 BEGIN ATOM
M  V30 1 Pd 2.7952 1.3928 -3.1385 0
M  V30 2 Pb 2.1360 0.6384 -3.1902 0
M  V30 3 Pb 3.4674 0.6896 -2.8958 0
M  V30 4 Pb 2.1553 2.1025 -3.4496 0
M  V30 5 Pb 3.4741 2.1248 -3.0488 0
M  V30 6 Pd 4.2063 -2.1708 4.7527 0
M  V30 7 Pb 3.5031 -1.9916 4.0620 0
M  V30 8 Pb 4.9450 -2.3383 5.4016 0
M  V30 9 Pb 4.1182 -1.2407 5.1007 0
M  V30 10 Pb 4.4787 -3.0047 4.2507 0
M  V30 11 Pd -6.6526 -3.0247 0.4460 0
M  V30 12 Pb -5.9846 -3.5936 -0.0649 0
M  V30 13 Pb -6.0230 -2.9911 1.2248 0
M  V30 14 Pb -7.3064 -2.4271 0.9146 0
M  V30 15 Pb -7.2695 -3.0887 -0.3322 0
M  V30 16 Pd -7.1023 2.3368 1.0281 0
M  V30 17 Pb -7.6800 1.5581 1.2812 0
M  V30 18 Pb -7.2837 2.2213 0.0515 0
M  V30 19 Pb -6.7950 2.4327 1.9713 0
M  V30 20 Pb -6.4817 3.0767 0.7712 0
M  V30 21 Pd -0.8002 0.4687 3.7142 0
M  V30 22 Pb -0.0650 -0.0733 3.3032 0
M  V30 23 Pb -1.3398 -0.3587 3.8641 0
M  V30 24 Pb -1.5661 0.9873 4.0892 0
M  V30 25 Pb -0.3360 1.3172 3.4565 0
M  V30 26 Pd -2.5460 3.4062 -4.4223 0
M  V30 27 Pb -3.5060 3.1247 -4.3576 0
M  V30 28 Pb -2.4105 2.7764 -5.1831 0
M  V30 29 Pb -1.5770 3.6538 -4.4323 0
M  V30 30 Pb -2.7169 3.9802 -3.6242 0
M  V30 31 Pd -3.3889 -3.4850 -4.4134 0
M  V30 32 Pb -2.4693 -3.3008 -4.0655 0
M  V30 33 Pb -3.1595 -2.9388 -5.2145 0
M  V30 34 Pb -4.3237 -3.6018 -4.7336 0
M  V30 35 Pb -3.6445 -3.9512 -3.5499 0
M  V30 36 Pd 5.3795 3.7734 0.9793 0
M  V30 37 Pb 4.4316 4.0500 1.1206 0
M  V30 38 Pb 6.3047 3.4127 0.8549 0
M  V30 39 Pb 5.3628 3.5282 1.9489 0
M  V30 40 Pb 5.3412 3.9618 -0.0030 0
M  V30 41 Pd 8.0725 -2.7470 1.0984 0
M  V30 42 Pb 8.6318 -2.8648 1.9158 0
M  V30 43 Pb 7.4972 -2.6064 0.2913 0
M  V30 44 Pb 8.5975 -1.9406 0.8351 0
M  V30 45 Pb 7.4175 -3.4221 1.4726 0
M  V30 46 Ag 1.7388 -0.0019 -3.1725 0
M  V30 47 Fe -0.0676 -1.5058 -3.5298 0
M  V30 48 Ag -1.7856 -3.1254 -3.8107 0
M  V30 49 Ag -0.0278 1.9526 3.2006 0
M  V30 50 Fe 1.8083 3.1231 2.2528 0
M  V30 51 Ag 3.7206 4.1741 1.3163 0
M  V30 52 Ag -6.4488 2.4905 2.6301 0
M  V30 53 Fe -4.3643 1.9801 3.6383 0
M  V30 54 Ag -2.1889 1.3298 4.3219 0
M  V30 55 Ag -7.2902 2.1769 -0.6976 0
M  V30 56 Fe -5.8611 2.5083 -2.5678 0
M  V30 57 Ag -4.2188 2.9158 -4.2372 0
M  V30 58 Ag -7.6044 -3.1708 -0.9891 0
M  V30 59 Fe -6.7453 -3.4515 -3.1668 0
M  V30 60 Ag -5.0604 -3.6408 -4.8047 0
M  V30 61 Ag 5.6025 -2.4702 5.7194 0
M  V30 62 Fe 7.6559 -2.7913 4.6124 0
M  V30 63 Ag 8.8869 -2.9329 2.6097 0
M  V30 64 Ag -5.9884 3.5888 0.5353 0
M  V30 65 Fe -4.4181 4.1021 -1.1681 0
M  V30 66 Ag -2.9322 4.3365 -3.0031 0
M  V30 67 Ag 4.1773 -0.5090 5.2416 0
M  V30 68 Fe 4.6971 1.4981 4.0856 0
M  V30 69 Ag 5.2408 3.3160 2.6585 0
M  V30 70 Ag 6.9674 3.0798 0.7391 0
M  V30 71 Fe 8.0794 0.9833 0.6692 0
M  V30 72 Ag 8.8648 -1.2567 0.6938 0
M  V30 73 Ag 3.9410 0.1184 -2.7686 0
M  V30 74 Fe 5.5059 -1.1454 -1.5018 0
M  V30 75 Ag 7.0773 -2.4801 -0.3184 0
M  V30 76 Ag -2.3523 2.2376 -5.6962 0
M  V30 77 Fe -2.6121 -0.1056 -5.9325 0
M  V30 78 Ag -2.9743 -2.4386 -5.7355 0
M  V30 79 Ag -5.5324 -2.9890 1.7947 0
M  V30 80 Fe -3.6710 -2.0096 2.8999 0
M  V30 81 Ag -1.8088 -0.9409 3.9175 0
M  V30 82 Ba 3.0098 -1.8702 3.5080 0
M  V30 83 Ga 1.7318 -1.1645 3.2834 0
M  V30 84 Ba 0.4572 -0.4914 2.9609 0
M  V30 85 Ba 4.7417 -3.5853 3.8327 0
M  V30 86 Ga 5.8215 -3.7349 2.8124 0
M  V30 87 Ba 6.9012 -3.8849 1.7921 0
M  V30 88 Ba -5.4869 -4.0437 -0.4322 0
M  V30 89 Ga -4.6811 -4.1137 -1.6871 0
M  V30 90 Ba -3.8290 -4.3045 -2.8981 0
M  V30 91 Ba -7.8070 -1.9674 1.2369 0
M  V30 92 Ga -7.9489 -0.5017 1.3649 0
M  V30 93 Ba -8.0902 0.9641 1.4925 0
M  V30 94 Ba 1.7779 2.7018 -3.7117 0
M  V30 95 Ga 0.4325 3.2124 -4.0509 0
M  V30 96 Ba -0.8510 3.8430 -4.4274 0
M  V30 97 Ba 3.9588 2.6963 -2.9824 0
M  V30 98 Ga 4.6408 3.3810 -1.8648 0
M  V30 99 Ba 5.3227 4.0648 -0.7467 0
M  V30 END ATOM
M  V30 BEGIN BOND
M  V30 1 1 1 2
M  V30 2 1 1 3
M  V30 3 1 1 4
M  V30 4 1 1 5
M  V30 5 1 6 7
M  V30 6 1 6 8
M  V30 7 1 6 9
M  V30 8 1 6 10
M  V30 9 1 11 12
M  V30 10 1 11 13
M  V30 11 1 11 14
M  V30 12 1 11 15
M  V30 13 1 16 17
M  V30 14 1 16 18
M  V30 15 1 16 19
M  V30 16 1 16 20
M  V30 17 1 21 22
M  V30 18 1 21 23
M  V30 19 1 21 24
M  V30 20 1 21 25
M  V30 21 1 26 27
M  V30 22 1 26 28
M  V30 23 1 26 29
M  V30 24 1 26 30
M  V30 25 1 31 32
M  V30 26 1 31 33
M  V30 27 1 31 34
M  V30 28 1 31 35
M  V30 29 1 36 37
M  V30 30 1 36 38
M  V30 31 1 36 39
M  V30 32 1 36 40
M  V30 33 1 41 42
M  V30 34 1 41 43
M  V30 35 1 41 44
M  V30 36 1 41 45
M  V30 37 1 46 47
M  V30 38 1 47 48
M  V30 39 1 49 50
M  V30 40 1 50 51
M  V30 41 1 52 53
M  V30 42 1 53 54
M  V30 43 1 55 56
M  V30 44 1 56 57
M  V30 45 1 58 59
M  V30 46 1 59 60
M  V30 47 1 61 62
M  V30 48 1 62 63
M  V30 49 1 64 65
M  V30 50 1 65 66
M  V30 51 1 67 68
M  V30 52 1 68 69
M  V30 53 1 70 71
M  V30 54 1 71 72
M  V30 55 1 73 74
M  V30 56 1 74 75
M  V30 57 1 76 77
M  V30 58 1 77 78
M  V30 59 1 79 80
M  V30 60 1 80 81
M  V30 61 1 82 83
M  V30 62 1 83 84
M  V30 63 1 85 86
M  V30 64 1 86 87
M  V30 65 1 88 89
M  V30 66 1 89 90
M  V30 67 1 91 92
M  V30 68 1 92 93
M  V30 69 1 94 95
M  V30 70 1 95 96
M  V30 71 1 97 98
M  V30 72 1 98 99
M  V30 73 1 2 46
M  V30 74 1 3 73
M  V30 75 1 4 94
M  V30 76 1 5 97
M  V30 77 1 7 82
M  V30 78 1 8 61
M  V30 79 1 9 67
M  V30 80 1 10 85
M  V30 81 1 12 88
M  V30 82 1 13 79
M  V30 83 1 14 91
M  V30 84 1 15 58
M  V30 85 1 17 93
M  V30 86 1 18 55
M  V30 87 1 19 52
M  V30 88 1 20 64
M  V30 89 1 22 84
M  V30 90 1 23 81
M  V30 91 1 24 54
M  V30 92 1 25 49
M  V30 93 1 27 57
M  V30 94 1 28 76
M  V30 95 1 29 96
M  V30 96 1 30 66
M  V30 97 1 32 48
M  V30 98 1 33 78
M  V30 99 1 34 60
M  V30 100 1 35 90
M  V30 101 1 37 51
M  V30 102 1 38 70
M  V30 103 1 39 69
M  V30 104 1 40 99
M  V30 105 1 42 63
M  V30 106 1 43 75
M  V30 107 1 44 72
M  V30 108 1 45 87
M  V30 END BOND
M  V30 END CTAB
M  END

$$$$
