
     RDKit          3D

  0  0  0  0  0  0  0  0  0  0999 V3000
M  V30 BEGIN CTAB
M  V30 COUNTS 99 108 0 0 0
M  V30 BEGIN ATOM
M  V30 1 Pd -3.3521 -2.1057 3.3214 0
M  V30 2 Pb -3.9260 -1.3583 3.6601 0
M  V30 3 Pb -2.7713 -2.8309 2.9471 0
M  V30 4 Pb -2.8916 -2.2072 4.2079 0
M  V30 5 Pb -3.8346 -2.0373 2.4488 0
M  V30 6 Pd 2.9018 -4.8336 -5.3777 0
M  V30 7 Pb 2.9623 -4.0427 -4.7655 0
M  V30 8 Pb 2.7922 -5.6346 -5.9599 0
M  V30 9 Pb 2.4660 -4.3071 -6.0996 0
M  V30 10 Pb 3.0286 -5.4367 -4.5773 0
M  V30 11 Pd 0.8637 6.8786 0.0353 0
M  V30 12 Pb 0.3833 7.0260 0.9273 0
M  V30 13 Pb 1.2824 6.6802 -0.8511 0
M  V30 14 Pb 1.7755 6.9454 0.4531 0
M  V30 15 Pb -0.0160 6.8561 -0.4215 0
M  V30 16 Pd 4.8453 3.7391 2.3192 0
M  V30 17 Pb 4.7831 4.6935 2.0233 0
M  V30 18 Pb 4.4980 3.9960 3.2142 0
M  V30 19 Pb 5.2050 3.4507 1.4333 0
M  V30 20 Pb 4.8003 2.7843 2.6291 0
M  V30 21 Pd 2.6712 1.0518 -4.1937 0
M  V30 22 Pb 2.7503 0.0804 -3.9580 0
M  V30 23 Pb 2.6006 2.0408 -4.3174 0
M  V30 24 Pb 3.5676 1.2124 -3.7889 0
M  V30 25 Pb 1.7280 0.9432 -4.5064 0
M  V30 26 Pd 0.4763 0.2491 6.8097 0
M  V30 27 Pb 1.0177 1.0816 6.8636 0
M  V30 28 Pb -0.2530 0.7714 7.2399 0
M  V30 29 Pb -0.0960 -0.5701 6.7343 0
M  V30 30 Pb 1.2262 -0.1473 6.2762 0
M  V30 31 Pd -3.6031 5.2954 3.7433 0
M  V30 32 Pb -4.2730 4.5689 3.8903 0
M  V30 33 Pb -3.2729 5.0634 4.6557 0
M  V30 34 Pb -3.9849 5.4906 2.8491 0
M  V30 35 Pb -2.8279 5.9353 3.5521 0
M  V30 36 Pd -3.6811 -3.1149 -4.3434 0
M  V30 37 Pb -3.3839 -2.1803 -4.5249 0
M  V30 38 Pb -3.9199 -4.0655 -4.1253 0
M  V30 39 Pb -3.1373 -3.3364 -5.1522 0
M  V30 40 Pb -4.1711 -2.8296 -3.5217 0
M  V30 41 Pd -0.9415 -7.1730 -2.3150 0
M  V30 42 Pb -0.9148 -7.7363 -3.1359 0
M  V30 43 Pb -0.9561 -6.6674 -1.4491 0
M  V30 44 Pb -1.9320 -7.0846 -2.4307 0
M  V30 45 Pb 0.0752 -7.1599 -2.3111 0
M  V30 46 Ag -4.3620 -0.7769 3.8518 0
M  V30 47 Fe -4.6157 1.5822 3.9724 0
M  V30 48 Ag -4.6834 3.9564 4.0248 0
M  V30 49 Ag 1.0004 0.9074 -4.6850 0
M  V30 50 Fe -1.0636 -0.2648 -4.7109 0
M  V30 51 Ag -3.0782 -1.5199 -4.6969 0
M  V30 52 Ag 5.4602 3.2012 0.7752 0
M  V30 53 Fe 4.9355 2.2888 -1.3506 0
M  V30 54 Ag 4.1885 1.3916 -3.4153 0
M  V30 55 Ag 4.2197 4.0969 3.8958 0
M  V30 56 Fe 2.8337 3.0332 5.4919 0
M  V30 57 Ag 1.4121 1.7124 6.8465 0
M  V30 58 Ag -0.7107 6.8207 -0.6692 0
M  V30 59 Fe -2.7584 6.2888 0.3574 0
M  V30 60 Ag -4.1442 5.6520 2.1470 0
M  V30 61 Ag 2.5479 -6.2590 -6.2738 0
M  V30 62 Fe 0.8274 -7.6267 -5.4358 0
M  V30 63 Ag -0.7698 -8.0910 -3.7711 0
M  V30 64 Ag 4.6897 2.0888 2.9014 0
M  V30 65 Fe 3.3266 0.7691 4.3393 0
M  V30 66 Ag 1.8157 -0.3027 5.8341 0
M  V30 67 Ag 1.9429 -4.0405 -6.5582 0
M  V30 68 Fe -0.3852 -3.6335 -6.3538 0
M  V30 69 Ag -2.6575 -3.3551 -5.7289 0
M  V30 70 Ag -4.2182 -1.9913 1.8065 0
M  V30 71 Fe -4.3760 -2.2963 -0.5423 0
M  V30 72 Ag -4.5096 -2.6098 -2.8915 0
M  V30 73 Ag -2.3215 -3.3627 2.6642 0
M  V30 74 Fe -1.6708 -4.8289 0.9095 0
M  V30 75 Ag -0.9292 -6.3343 -0.7746 0
M  V30 76 Ag -0.7369 1.2933 7.4611 0
M  V30 77 Fe -1.9849 3.0865 6.5403 0
M  V30 78 Ag -3.1093 4.7894 5.3325 0
M  V30 79 Ag 1.5406 6.4865 -1.5283 0
M  V30 80 Fe 2.0820 4.7008 -2.9973 0
M  V30 81 Ag 2.5742 2.7897 -4.3185 0
M  V30 82 Ba 3.0001 -3.5052 -4.2411 0
M  V30 83 Ga 2.9061 -2.0418 -4.0588 0
M  V30 84 Ba 2.8433 -0.6141 -3.6831 0
M  V30 85 Ba 3.0149 -5.8940 -3.9670 0
M  V30 86 Ga 1.9197 -6.5102 -3.1560 0
M  V30 87 Ba 0.8419 -7.1373 -2.3302 0
M  V30 88 Ba 0.0197 7.1673 1.5949 0
M  V30 89 Ga -1.1295 6.7259 2.4568 0
M  V30 90 Ba -2.2306 6.4106 3.4297 0
M  V30 91 Ba 2.4792 7.0323 0.7132 0
M  V30 92 Ga 3.5718 6.2053 1.2716 0
M  V30 93 Ba 4.6891 5.4149 1.8342 0
M  V30 94 Ba -2.5557 -2.3378 4.8701 0
M  V30 95 Ga -1.5419 -1.7258 5.7561 0
M  V30 96 Ba -0.5387 -1.1768 6.6940 0
M  V30 97 Ba -4.1086 -4.7585 -3.8944 0
M  V30 98 Ga -3.3956 -5.8818 -3.2466 0
M  V30 99 Ba -2.6580 -6.9906 -2.6017 0
M  V30 END ATOM
M  V30 BEGIN BOND
M  V30 1 1 1 2
M  V30 2 1 1 3
M  V30 3 1 1 4
M  V30 4 1 1 5
M  V30 5 1 6 7
M  V30 6 1 6 8
M  V30 7 1 6 9
M  V30 8 1 6 10
M  V30 9 1 11 12
M  V30 10 1 11 13
M  V30 11 1 11 14
M  V30 12 1 11 15
M  V30 13 1 16 17
M  V30 14 1 16 18
M  V30 15 1 16 19
M  V30 16 1 16 20
M  V30 17 1 21 22
M  V30 18 1 21 23
M  V30 19 1 21 24
M  V30 20 1 21 25
M  V30 21 1 26 27
M  V30 22 1 26 28
M  V30 23 1 26 29
M  V30 24 1 26 30
M  V30 25 1 31 32
M  V30 26 1 31 33
M  V30 27 1 31 34
M  V30 28 1 31 35
M  V30 29 1 36 37
M  V30 30 1 36 38
M  V30 31 1 36 39
M  V30 32 1 36 40
M  V30 33 1 41 42
M  V30 34 1 41 43
M  V30 35 1 41 44
M  V30 36 1 41 45
M  V30 37 1 46 47
M  V30 38 1 47 48
M  V30 39 1 49 50
M  V30 40 1 50 51
M  V30 41 1 52 53
M  V30 42 1 53 54
M  V30 43 1 55 56
M  V30 44 1 56 57
M  V30 45 1 58 59
M  V30 46 1 59 60
M  V30 47 1 61 62
M  V30 48 1 62 63
M  V30 49 1 64 65
M  V30 50 1 65 66
M  V30 51 1 67 68
M  V30 52 1 68 69
M  V30 53 1 70 71
M  V30 54 1 71 72
M  V30 55 1 73 74
M  V30 56 1 74 75
M  V30 57 1 76 77
M  V30 58 1 77 78
M  V30 59 1 79 80
M  V30 60 1 80 81
M  V30 61 1 82 83
M  V30 62 1 83 84
M  V30 63 1 85 86
M  V30 64 1 86 87
M  V30 65 1 88 89
M  V30 66 1 89 90
M  V30 67 1 91 92
M  V30 68 1 92 93
M  V30 69 1 94 95
M  V30 70 1 95 96
M  V30 71 1 97 98
M  V30 72 1 98 99
M  V30 73 1 2 46
M  V30 74 1 3 73
M  V30 75 1 4 94
M  V30 76 1 5 70
M  V30 77 1 7 82
M  V30 78 1 8 61
M  V30 79 1 9 67
M  V30 80 1 10 85
M  V30 81 1 12 88
M  V30 82 1 13 79
M  V30 83 1 14 91
M  V30 84 1 15 58
M  V30 85 1 17 93
M  V30 86 1 18 55
M  V30 87 1 19 52
M  V30 88 1 20 64
M  V30 89 1 22 84
M  V30 90 1 23 81
M  V30 91 1 24 54
M  V30 92 1 25 49
M  V30 93 1 27 57
M  V30 94 1 28 76
M  V30 95 1 29 96
M  V30 96 1 30 66
M  V30 97 1 32 48
M  V30 98 1 33 78
M  V30 99 1 34 60
M  V30 100 1 35 90
M  V30 101 1 37 51
M  V30 102 1 38 97
M  V30 103 1 39 69
M  V30 104 1 40 72
M  V30 105 1 42 63
M  V30 106 1 43 75
M  V30 107 1 44 99
M  V30 108 1 45 87
M  V30 END BOND
M  V30 END CTAB
M  END

$$$$
