
     RDKit          3D

  0  0  0  0  0  0  0  0  0  0999 V3000
M  V30 BEGIN CTAB
M  V30 COUNTS 99 108 0 0 0
M  V30 BEGIN ATOM
M  V30 1 Pd 2.9801 -3.3176 -1.8685 0
M  V30 2 Pb 3.8704 -2.9646 -2.1434 0
M  V30 3 Pb 2.1044 -3.6719 -1.5387 0
M  V30 4 Pb 3.4668 -4.0041 -1.3262 0
M  V30 5 Pb 2.5413 -2.5796 -2.3877 0
M  V30 6 Pd -8.5386 0.8668 -1.7231 0
M  V30 7 Pb -8.1969 1.6982 -1.2828 0
M  V30 8 Pb -8.8197 0.0342 -2.1888 0
M  V30 9 Pb -8.4926 1.3175 -2.6099 0
M  V30 10 Pb -8.4029 0.3006 -0.9060 0
M  V30 11 Pd 3.9559 4.4080 1.8246 0
M  V30 12 Pb 4.7443 4.3311 2.4413 0
M  V30 13 Pb 3.1841 4.3362 1.1895 0
M  V30 14 Pb 3.3262 4.4874 2.5962 0
M  V30 15 Pb 4.5876 4.3668 1.0547 0
M  V30 16 Pd -0.5150 0.3440 5.6814 0
M  V30 17 Pb -0.3905 1.3224 5.8137 0
M  V30 18 Pb 0.3955 0.1971 6.0586 0
M  V30 19 Pb -1.3851 0.5179 5.2239 0
M  V30 20 Pb -0.5105 -0.6188 5.4105 0
M  V30 21 Pd -3.5731 3.4160 -0.6945 0
M  V30 22 Pb -4.5716 3.5211 -0.6704 0
M  V30 23 Pb -2.5711 3.3946 -0.6948 0
M  V30 24 Pb -3.6363 2.9962 0.2118 0
M  V30 25 Pb -3.4949 3.7935 -1.6194 0
M  V30 26 Pd 5.0850 -3.2600 3.1041 0
M  V30 27 Pb 4.9929 -2.6616 3.8957 0
M  V30 28 Pb 6.0426 -2.9753 3.0114 0
M  V30 29 Pb 5.1359 -3.8860 2.3230 0
M  V30 30 Pb 4.1180 -3.4926 3.2341 0
M  V30 31 Pd 7.7895 1.1453 1.1726 0
M  V30 32 Pb 7.8159 0.5669 0.3620 0
M  V30 33 Pb 8.0065 0.3399 1.7305 0
M  V30 34 Pb 7.5560 1.9173 0.5874 0
M  V30 35 Pb 7.6786 1.7491 1.9674 0
M  V30 36 Pd -2.5931 1.0851 -5.3887 0
M  V30 37 Pb -2.5734 2.0437 -5.0956 0
M  V30 38 Pb -2.6495 0.1126 -5.6238 0
M  V30 39 Pb -3.5494 1.2478 -5.6284 0
M  V30 40 Pb -1.6428 0.9308 -5.1139 0
M  V30 41 Pd -4.7330 -4.7747 -2.0023 0
M  V30 42 Pb -5.6079 -4.6665 -2.4627 0
M  V30 43 Pb -3.8514 -4.8512 -1.5386 0
M  V30 44 Pb -4.2743 -4.7906 -2.8886 0
M  V30 45 Pb -5.2074 -4.5177 -1.1564 0
M  V30 46 Ag 4.5536 -2.6947 -2.2742 0
M  V30 47 Fe 6.2496 -1.3033 -1.3783 0
M  V30 48 Ag 7.7498 0.1397 -0.2457 0
M  V30 49 Ag -2.0045 0.6920 4.8416 0
M  V30 50 Fe -2.8832 1.6725 2.8654 0
M  V30 51 Ag -3.7263 2.6614 0.8778 0
M  V30 52 Ag 1.1047 0.0690 6.2517 0
M  V30 53 Fe 3.0681 -1.0289 5.5065 0
M  V30 54 Ag 4.8360 -2.2323 4.4856 0
M  V30 55 Ag -8.2177 -0.2291 -0.4018 0
M  V30 56 Fe -6.9538 -2.2449 -0.2997 0
M  V30 57 Ag -5.6062 -4.1836 -0.6099 0
M  V30 58 Ag -8.9265 -0.6236 -2.5180 0
M  V30 59 Fe -7.7835 -2.6771 -2.7839 0
M  V30 60 Ag -6.2710 -4.4954 -2.7523 0
M  V30 61 Ag -0.3703 -1.3100 5.1529 0
M  V30 62 Fe 1.4204 -2.5869 4.2495 0
M  V30 63 Ag 3.3881 -3.6030 3.3837 0
M  V30 64 Ag 2.8421 4.5402 3.1654 0
M  V30 65 Fe 1.2891 3.4247 4.5680 0
M  V30 66 Ag -0.1872 2.0390 5.8018 0
M  V30 67 Ag -8.3155 1.5492 -3.2964 0
M  V30 68 Fe -6.3863 1.5735 -4.6754 0
M  V30 69 Ag -4.2683 1.4304 -5.7337 0
M  V30 70 Ag 2.2837 -1.9850 -2.7721 0
M  V30 71 Fe 0.6363 -0.6329 -3.8262 0
M  V30 72 Ag -0.9349 0.7876 -4.9067 0
M  V30 73 Ag -2.6766 -0.6308 -5.7349 0
M  V30 74 Fe -3.2647 -2.7240 -4.7772 0
M  V30 75 Ag -3.9589 -4.6355 -3.5496 0
M  V30 76 Ag 1.4745 -3.9563 -1.2456 0
M  V30 77 Fe -0.8557 -4.4152 -1.2499 0
M  V30 78 Ag -3.1806 -4.8980 -1.2085 0
M  V30 79 Ag 2.6390 4.1972 0.6899 0
M  V30 80 Fe 0.3805 3.8356 0.0402 0
M  V30 81 Ag -1.8239 3.4511 -0.7639 0
M  V30 82 Ba -7.9345 2.3403 -0.9944 0
M  V30 83 Ga -6.6048 2.9586 -0.8033 0
M  V30 84 Ba -5.3113 3.6404 -0.5827 0
M  V30 85 Ba -3.3589 4.0548 -2.3119 0
M  V30 86 Ga -2.9971 3.4169 -3.5965 0
M  V30 87 Ba -2.6366 2.7598 -4.8717 0
M  V30 88 Ba 5.0866 4.3319 0.5006 0
M  V30 89 Ga 6.2288 3.4338 0.2824 0
M  V30 90 Ba 7.3451 2.4870 0.1537 0
M  V30 91 Ba 5.3500 4.2001 2.8716 0
M  V30 92 Ga 6.4662 3.2351 2.7309 0
M  V30 93 Ba 7.5491 2.2449 2.5216 0
M  V30 94 Ba 3.8787 -4.4848 -0.9214 0
M  V30 95 Ga 4.5043 -4.4340 0.4165 0
M  V30 96 Ba 5.1287 -4.3791 1.7548 0
M  V30 97 Ba 6.7548 -2.7289 2.9984 0
M  V30 98 Ga 7.4542 -1.5073 2.5406 0
M  V30 99 Ba 8.1804 -0.2975 2.0935 0
M  V30 END ATOM
M  V30 BEGIN BOND
M  V30 1 1 1 2
M  V30 2 1 1 3
M  V30 3 1 1 4
M  V30 4 1 1 5
M  V30 5 1 6 7
M  V30 6 1 6 8
M  V30 7 1 6 9
M  V30 8 1 6 10
M  V30 9 1 11 12
M  V30 10 1 11 13
M  V30 11 1 11 14
M  V30 12 1 11 15
M  V30 13 1 16 17
M  V30 14 1 16 18
M  V30 15 1 16 19
M  V30 16 1 16 20
M  V30 17 1 21 22
M  V30 18 1 21 23
M  V30 19 1 21 24
M  V30 20 1 21 25
M  V30 21 1 26 27
M  V30 22 1 26 28
M  V30 23 1 26 29
M  V30 24 1 26 30
M  V30 25 1 31 32
M  V30 26 1 31 33
M  V30 27 1 31 34
M  V30 28 1 31 35
M  V30 29 1 36 37
M  V30 30 1 36 38
M  V30 31 1 36 39
M  V30 32 1 36 40
M  V30 33 1 41 42
M  V30 34 1 41 43
M  V30 35 1 41 44
M  V30 36 1 41 45
M  V30 37 1 46 47
M  V30 38 1 47 48
M  V30 39 1 49 50
M  V30 40 1 50 51
M  V30 41 1 52 53
M  V30 42 1 53 54
M  V30 43 1 55 56
M  V30 44 1 56 57
M  V30 45 1 58 59
M  V30 46 1 59 60
M  V30 47 1 61 62
M  V30 48 1 62 63
M  V30 49 1 64 65
M  V30 50 1 65 66
M  V30 51 1 67 68
M  V30 52 1 68 69
M  V30 53 1 70 71
M  V30 54 1 71 72
M  V30 55 1 73 74
M  V30 56 1 74 75
M  V30 57 1 76 77
M  V30 58 1 77 78
M  V30 59 1 79 80
M  V30 60 1 80 81
M  V30 61 1 82 83
M  V30 62 1 83 84
M  V30 63 1 85 86
M  V30 64 1 86 87
M  V30 65 1 88 89
M  V30 66 1 89 90
M  V30 67 1 91 92
M  V30 68 1 92 93
M  V30 69 1 94 95
M  V30 70 1 95 96
M  V30 71 1 97 98
M  V30 72 1 98 99
M  V30 73 1 2 46
M  V30 74 1 3 76
M  V30 75 1 4 94
M  V30 76 1 5 70
M  V30 77 1 7 82
M  V30 78 1 8 58
M  V30 79 1 9 67
M  V30 80 1 10 55
M  V30 81 1 12 91
M  V30 82 1 13 79
M  V30 83 1 14 64
M  V30 84 1 15 88
M  V30 85 1 17 66
M  V30 86 1 18 52
M  V30 87 1 19 49
M  V30 88 1 20 61
M  V30 89 1 22 84
M  V30 90 1 23 81
M  V30 91 1 24 51
M  V30 92 1 25 85
M  V30 93 1 27 54
M  V30 94 1 28 97
M  V30 95 1 29 96
M  V30 96 1 30 63
M  V30 97 1 32 48
M  V30 98 1 33 99
M  V30 99 1 34 90
M  V30 100 1 35 93
M  V30 101 1 37 87
M  V30 102 1 38 73
M  V30 103 1 39 69
M  V30 104 1 40 72
M  V30 105 1 42 60
M  V30 106 1 43 78
M  V30 107 1 44 75
M  V30 108 1 45 57
M  V30 END BOND
M  V30 END CTAB
M  END

$$$$
