
     RDKit          3D

  0  0  0  0  0  0  0  0  0  0999 V3000
M  V30 BEGIN CTAB
M  V30 COUNTS 99 108 0 0 0
M  V30 BEGIN ATOM
M  V30 1 Pd 3.0166 6.4224 -3.0980 0
M  V30 2 Pb 2.9425 6.1760 -4.0639 0
M  V30 3 Pb 3.8875 5.9407 -2.9887 0
M  V30 4 Pb 2.8898 6.5106 -2.1090 0
M  V30 5 Pb 2.1608 6.9171 -3.2047 0
M  V30 6 Pd -5.5357 -7.0968 1.3875 0
M  V30 7 Pb -5.8896 -6.5139 2.1200 0
M  V30 8 Pb -4.9261 -7.5778 2.0309 0
M  V30 9 Pb -5.1387 -7.6349 0.6482 0
M  V30 10 Pb -5.9656 -6.4630 0.7496 0
M  V30 11 Pd -4.7373 -0.2724 2.3796 0
M  V30 12 Pb -5.3331 -0.8143 2.9691 0
M  V30 13 Pb -4.0378 0.1236 1.7891 0
M  V30 14 Pb -5.1090 -0.8049 1.6177 0
M  V30 15 Pb -4.3849 0.2569 3.1525 0
M  V30 16 Pd -2.6720 4.0672 -0.9593 0
M  V30 17 Pb -2.5251 3.1603 -0.5747 0
M  V30 18 Pb -2.0849 4.4796 -0.2601 0
M  V30 19 Pb -2.7385 4.9641 -1.3806 0
M  V30 20 Pb -3.0359 3.6648 -1.7972 0
M  V30 21 Pd 0.5097 2.2117 -4.5718 0
M  V30 22 Pb 0.3292 1.3548 -4.0777 0
M  V30 23 Pb -0.4760 2.4180 -4.5454 0
M  V30 24 Pb 0.7560 3.0466 -5.0776 0
M  V30 25 Pb 1.4752 1.9720 -4.6203 0
M  V30 26 Pd 0.1527 0.5484 4.6117 0
M  V30 27 Pb -0.7697 0.8939 4.7873 0
M  V30 28 Pb 1.0665 0.2028 4.4277 0
M  V30 29 Pb -0.0896 -0.3456 4.9869 0
M  V30 30 Pb 0.4443 1.4078 4.1791 0
M  V30 31 Pd -0.0501 -6.7006 2.5234 0
M  V30 32 Pb -0.8884 -7.1896 2.8195 0
M  V30 33 Pb -0.0256 -7.2868 1.7176 0
M  V30 34 Pb 0.7614 -6.2038 2.2062 0
M  V30 35 Pb -0.1339 -6.0819 3.3053 0
M  V30 36 Pd 5.5141 2.3528 0.0014 0
M  V30 37 Pb 5.3634 1.6737 0.7122 0
M  V30 38 Pb 5.6768 3.0288 -0.7201 0
M  V30 39 Pb 4.8061 2.9062 0.4497 0
M  V30 40 Pb 6.1427 1.7100 -0.4337 0
M  V30 41 Pd 3.6306 -1.4493 -2.1284 0
M  V30 42 Pb 3.7544 -0.7615 -2.8388 0
M  V30 43 Pb 4.6192 -1.4058 -1.9841 0
M  V30 44 Pb 2.6383 -1.4125 -2.2751 0
M  V30 45 Pb 3.5375 -2.1406 -1.4062 0
M  V30 46 Ag 2.6141 6.4948 -1.4097 0
M  V30 47 Fe 0.6089 5.7261 -0.3877 0
M  V30 48 Ag -1.5263 4.8100 0.1205 0
M  V30 49 Ag -4.6845 -7.9951 0.1838 0
M  V30 50 Fe -2.3319 -8.1555 0.2270 0
M  V30 51 Ag -0.1991 -7.6964 1.1230 0
M  V30 52 Ag -6.1350 -6.0059 2.6151 0
M  V30 53 Fe -6.0490 -3.6914 3.1378 0
M  V30 54 Ag -5.7139 -1.3489 3.3281 0
M  V30 55 Ag -6.1736 -5.8618 0.3581 0
M  V30 56 Fe -5.8988 -3.5124 0.5540 0
M  V30 57 Ag -5.4201 -1.2524 1.1010 0
M  V30 58 Ag 1.3691 -5.8285 1.9678 0
M  V30 59 Fe 2.3997 -4.2339 0.5344 0
M  V30 60 Ag 3.5110 -2.6572 -0.8577 0
M  V30 61 Ag 0.7360 2.0047 3.8187 0
M  V30 62 Fe 2.4486 2.7248 2.3280 0
M  V30 63 Ag 4.2337 3.2187 0.8302 0
M  V30 64 Ag 1.4845 7.2223 -3.2398 0
M  V30 65 Fe -0.7266 6.7016 -2.5926 0
M  V30 66 Ag -2.6323 5.6146 -1.7189 0
M  V30 67 Ag 1.7555 -0.0097 4.2454 0
M  V30 68 Fe 3.5653 0.4801 2.8004 0
M  V30 69 Ag 5.2102 1.1824 1.2499 0
M  V30 70 Ag -0.2195 -1.0455 5.2215 0
M  V30 71 Fe -0.2449 -3.3399 4.6084 0
M  V30 72 Ag -0.2329 -5.5972 3.8698 0
M  V30 73 Ba -3.1835 3.3961 -2.4816 0
M  V30 74 Ga -2.2285 2.9440 -3.5194 0
M  V30 75 Ba -1.2281 2.5069 -4.5205 0
M  V30 76 Ba 4.5548 5.6038 -2.9152 0
M  V30 77 Ga 5.1608 4.5515 -2.0744 0
M  V30 78 Ba 5.8381 3.5111 -1.2741 0
M  V30 79 Ba -3.4571 0.3304 1.3655 0
M  V30 80 Ga -2.9696 1.4437 0.5365 0
M  V30 81 Ba -2.3653 2.4786 -0.3170 0
M  V30 82 Ba 2.7391 5.9495 -4.7511 0
M  V30 83 Ga 1.8941 4.7968 -5.1446 0
M  V30 84 Ba 1.0417 3.6281 -5.4699 0
M  V30 85 Ba 2.1957 1.7860 -4.6729 0
M  V30 86 Ga 3.0396 0.7749 -4.0206 0
M  V30 87 Ba 3.8723 -0.2407 -3.3608 0
M  V30 88 Ba -4.4167 -7.8902 2.5000 0
M  V30 89 Ga -2.9577 -7.7131 2.7514 0
M  V30 90 Ba -1.5028 -7.5817 3.0496 0
M  V30 91 Ba -4.1210 0.6651 3.7248 0
M  V30 92 Ga -2.7923 0.9013 4.3224 0
M  V30 93 Ba -1.4655 1.1402 4.9231 0
M  V30 94 Ba 0.2070 0.7029 -3.7160 0
M  V30 95 Ga 1.0517 -0.3195 -3.0551 0
M  V30 96 Ba 1.8972 -1.3413 -2.3942 0
M  V30 97 Ba 6.5395 1.1501 -0.7339 0
M  V30 98 Ga 6.0269 -0.0969 -1.3304 0
M  V30 99 Ba 5.3535 -1.2806 -1.8954 0
M  V30 END ATOM
M  V30 BEGIN BOND
M  V30 1 1 1 2
M  V30 2 1 1 3
M  V30 3 1 1 4
M  V30 4 1 1 5
M  V30 5 1 6 7
M  V30 6 1 6 8
M  V30 7 1 6 9
M  V30 8 1 6 10
M  V30 9 1 11 12
M  V30 10 1 11 13
M  V30 11 1 11 14
M  V30 12 1 11 15
M  V30 13 1 16 17
M  V30 14 1 16 18
M  V30 15 1 16 19
M  V30 16 1 16 20
M  V30 17 1 21 22
M  V30 18 1 21 23
M  V30 19 1 21 24
M  V30 20 1 21 25
M  V30 21 1 26 27
M  V30 22 1 26 28
M  V30 23 1 26 29
M  V30 24 1 26 30
M  V30 25 1 31 32
M  V30 26 1 31 33
M  V30 27 1 31 34
M  V30 28 1 31 35
M  V30 29 1 36 37
M  V30 30 1 36 38
M  V30 31 1 36 39
M  V30 32 1 36 40
M  V30 33 1 41 42
M  V30 34 1 41 43
M  V30 35 1 41 44
M  V30 36 1 41 45
M  V30 37 1 46 47
M  V30 38 1 47 48
M  V30 39 1 49 50
M  V30 40 1 50 51
M  V30 41 1 52 53
M  V30 42 1 53 54
M  V30 43 1 55 56
M  V30 44 1 56 57
M  V30 45 1 58 59
M  V30 46 1 59 60
M  V30 47 1 61 62
M  V30 48 1 62 63
M  V30 49 1 64 65
M  V30 50 1 65 66
M  V30 51 1 67 68
M  V30 52 1 68 69
M  V30 53 1 70 71
M  V30 54 1 71 72
M  V30 55 1 73 74
M  V30 56 1 74 75
M  V30 57 1 76 77
M  V30 58 1 77 78
M  V30 59 1 79 80
M  V30 60 1 80 81
M  V30 61 1 82 83
M  V30 62 1 83 84
M  V30 63 1 85 86
M  V30 64 1 86 87
M  V30 65 1 88 89
M  V30 66 1 89 90
M  V30 67 1 91 92
M  V30 68 1 92 93
M  V30 69 1 94 95
M  V30 70 1 95 96
M  V30 71 1 97 98
M  V30 72 1 98 99
M  V30 73 1 2 82
M  V30 74 1 3 76
M  V30 75 1 4 46
M  V30 76 1 5 64
M  V30 77 1 7 52
M  V30 78 1 8 88
M  V30 79 1 9 49
M  V30 80 1 10 55
M  V30 81 1 12 54
M  V30 82 1 13 79
M  V30 83 1 14 57
M  V30 84 1 15 91
M  V30 85 1 17 81
M  V30 86 1 18 48
M  V30 87 1 19 66
M  V30 88 1 20 73
M  V30 89 1 22 94
M  V30 90 1 23 75
M  V30 91 1 24 84
M  V30 92 1 25 85
M  V30 93 1 27 93
M  V30 94 1 28 67
M  V30 95 1 29 70
M  V30 96 1 30 61
M  V30 97 1 32 90
M  V30 98 1 33 51
M  V30 99 1 34 58
M  V30 100 1 35 72
M  V30 101 1 37 69
M  V30 102 1 38 78
M  V30 103 1 39 63
M  V30 104 1 40 97
M  V30 105 1 42 87
M  V30 106 1 43 99
M  V30 107 1 44 96
M  V30 108 1 45 60
M  V30 END BOND
M  V30 END CTAB
M  END

$$$$
