
     RDKit          3D

  0  0  0  0  0  0  0  0  0  0999 V3000
M  V30 BEGIN CTAB
M  V30 COUNTS 99 108 0 0 0
M  V30 BEGIN ATOM
M  V30 1 Pd -2.1966 -4.3051 1.1961 0
M  V30 2 Pb -3.1172 -4.4668 0.8302 0
M  V30 3 Pb -1.2649 -4.1742 1.5337 0
M  V30 4 Pb -1.8563 -5.0685 0.6539 0
M  V30 5 Pb -2.4904 -3.4815 1.6830 0
M  V30 6 Pd 5.6135 1.5797 6.0381 0
M  V30 7 Pb 5.6362 1.9209 5.1000 0
M  V30 8 Pb 6.1678 0.7877 5.7813 0
M  V30 9 Pb 4.9520 2.2848 6.2883 0
M  V30 10 Pb 5.5534 1.2093 6.9619 0
M  V30 11 Pd -3.9732 3.7437 -4.6986 0
M  V30 12 Pb -4.5311 3.2443 -4.0374 0
M  V30 13 Pb -3.7462 4.4285 -4.0135 0
M  V30 14 Pb -3.3365 4.2011 -5.3182 0
M  V30 15 Pb -4.1346 2.9904 -5.3352 0
M  V30 16 Pd 1.0151 2.6593 -5.2302 0
M  V30 17 Pb 0.5050 3.4468 -5.5789 0
M  V30 18 Pb 1.4961 1.8338 -4.9316 0
M  V30 19 Pb 1.5773 3.2428 -4.6361 0
M  V30 20 Pb 0.4745 2.0628 -5.8237 0
M  V30 21 Pd 1.5928 4.5948 0.1566 0
M  V30 22 Pb 2.4425 4.2264 0.5321 0
M  V30 23 Pb 0.7576 5.0005 -0.2070 0
M  V30 24 Pb 2.0079 4.6106 -0.7583 0
M  V30 25 Pb 1.1642 4.6086 1.0635 0
M  V30 26 Pd -0.5844 -4.4380 -5.6172 0
M  V30 27 Pb 0.2286 -3.9195 -5.3467 0
M  V30 28 Pb -1.4512 -4.9013 -5.7984 0
M  V30 29 Pb -0.3984 -5.1444 -4.9402 0
M  V30 30 Pb -0.8095 -3.6757 -6.2214 0
M  V30 31 Pd -5.1206 -3.3016 -3.4585 0
M  V30 32 Pb -5.2134 -3.8345 -2.6134 0
M  V30 33 Pb -4.8553 -4.1025 -3.9985 0
M  V30 34 Pb -5.0273 -2.7309 -4.2755 0
M  V30 35 Pb -5.3889 -2.4719 -2.9717 0
M  V30 36 Pd 0.2568 1.8115 5.1780 0
M  V30 37 Pb 0.1669 2.6221 4.5942 0
M  V30 38 Pb 0.2957 1.0171 5.7908 0
M  V30 39 Pb 0.9746 2.3034 5.6791 0
M  V30 40 Pb -0.4880 1.3428 4.6986 0
M  V30 41 Pd 3.4441 -2.4339 6.3974 0
M  V30 42 Pb 4.3902 -2.5055 6.0806 0
M  V30 43 Pb 3.1127 -2.7916 5.5255 0
M  V30 44 Pb 2.5118 -2.2250 6.6857 0
M  V30 45 Pb 3.7838 -2.0444 7.2503 0
M  V30 46 Ag 5.6244 2.1635 4.3920 0
M  V30 47 Fe 4.3692 3.0680 2.5916 0
M  V30 48 Ag 3.0918 3.9722 0.8068 0
M  V30 49 Ag 1.7973 1.1637 -4.7745 0
M  V30 50 Fe 1.4048 -1.1772 -4.9000 0
M  V30 51 Ag 0.7811 -3.4594 -5.1278 0
M  V30 52 Ag -4.2503 2.3584 -5.7212 0
M  V30 53 Fe -4.6139 0.0302 -5.4229 0
M  V30 54 Ag -4.9614 -2.2478 -4.8465 0
M  V30 55 Ag -4.8965 2.8015 -3.5568 0
M  V30 56 Fe -5.3183 0.5319 -3.0063 0
M  V30 57 Ag -5.5749 -1.8055 -2.6858 0
M  V30 58 Ag 0.0995 1.5717 -6.2487 0
M  V30 59 Fe -0.4894 -0.7104 -6.5345 0
M  V30 60 Ag -0.9388 -3.0406 -6.5959 0
M  V30 61 Ag -1.5611 -5.5681 0.1854 0
M  V30 62 Fe -0.8823 -5.7944 -2.0728 0
M  V30 63 Ag -0.3439 -5.6257 -4.3735 0
M  V30 64 Ag -2.6618 -2.8324 2.0198 0
M  V30 65 Fe -1.8828 -0.9232 3.2022 0
M  V30 66 Ag -1.0585 0.9688 4.3814 0
M  V30 67 Ag -0.5515 -4.1118 1.7550 0
M  V30 68 Fe 1.1331 -3.5653 3.3362 0
M  V30 69 Ag 2.8768 -3.0426 4.8604 0
M  V30 70 Ag -3.4954 4.8928 -3.4882 0
M  V30 71 Fe -1.7227 5.1869 -1.9432 0
M  V30 72 Ag 0.1272 5.3065 -0.4663 0
M  V30 73 Ba -3.7947 -4.6353 0.5459 0
M  V30 74 Ga -4.5316 -4.4028 -0.7164 0
M  V30 75 Ba -5.3077 -4.1972 -1.9597 0
M  V30 76 Ba 0.7997 4.6753 1.7191 0
M  V30 77 Ga 0.4808 3.9098 2.9432 0
M  V30 78 Ba 0.0849 3.2672 4.2148 0
M  V30 79 Ba 2.0260 3.6777 -4.2133 0
M  V30 80 Ga 2.1395 4.1395 -2.8109 0
M  V30 81 Ba 2.3369 4.6527 -1.4360 0
M  V30 82 Ba 5.4644 0.8685 7.6199 0
M  V30 83 Ga 4.7837 -0.4125 7.8477 0
M  V30 84 Ba 4.0676 -1.6945 7.8458 0
M  V30 85 Ba 6.4952 0.1335 5.6144 0
M  V30 86 Ga 5.8853 -1.2075 5.6992 0
M  V30 87 Ba 5.1020 -2.4489 5.8502 0
M  V30 88 Ba -2.8060 4.5469 -5.7193 0
M  V30 89 Ga -1.3546 4.3012 -5.8236 0
M  V30 90 Ba 0.0879 3.9948 -5.8789 0
M  V30 91 Ba 4.4068 2.7600 6.4836 0
M  V30 92 Ga 2.9468 2.7424 6.2567 0
M  V30 93 Ba 1.4861 2.7287 6.0348 0
M  V30 94 Ba 0.2498 0.4102 6.2364 0
M  V30 95 Ga 1.0448 -0.7909 6.5645 0
M  V30 96 Ba 1.8333 -1.9939 6.9013 0
M  V30 97 Ba -2.1141 -5.2485 -5.8465 0
M  V30 98 Ga -3.3988 -4.9835 -5.1689 0
M  V30 99 Ba -4.6526 -4.6616 -4.4585 0
M  V30 END ATOM
M  V30 BEGIN BOND
M  V30 1 1 1 2
M  V30 2 1 1 3
M  V30 3 1 1 4
M  V30 4 1 1 5
M  V30 5 1 6 7
M  V30 6 1 6 8
M  V30 7 1 6 9
M  V30 8 1 6 10
M  V30 9 1 11 12
M  V30 10 1 11 13
M  V30 11 1 11 14
M  V30 12 1 11 15
M  V30 13 1 16 17
M  V30 14 1 16 18
M  V30 15 1 16 19
M  V30 16 1 16 20
M  V30 17 1 21 22
M  V30 18 1 21 23
M  V30 19 1 21 24
M  V30 20 1 21 25
M  V30 21 1 26 27
M  V30 22 1 26 28
M  V30 23 1 26 29
M  V30 24 1 26 30
M  V30 25 1 31 32
M  V30 26 1 31 33
M  V30 27 1 31 34
M  V30 28 1 31 35
M  V30 29 1 36 37
M  V30 30 1 36 38
M  V30 31 1 36 39
M  V30 32 1 36 40
M  V30 33 1 41 42
M  V30 34 1 41 43
M  V30 35 1 41 44
M  V30 36 1 41 45
M  V30 37 1 46 47
M  V30 38 1 47 48
M  V30 39 1 49 50
M  V30 40 1 50 51
M  V30 41 1 52 53
M  V30 42 1 53 54
M  V30 43 1 55 56
M  V30 44 1 56 57
M  V30 45 1 58 59
M  V30 46 1 59 60
M  V30 47 1 61 62
M  V30 48 1 62 63
M  V30 49 1 64 65
M  V30 50 1 65 66
M  V30 51 1 67 68
M  V30 52 1 68 69
M  V30 53 1 70 71
M  V30 54 1 71 72
M  V30 55 1 73 74
M  V30 56 1 74 75
M  V30 57 1 76 77
M  V30 58 1 77 78
M  V30 59 1 79 80
M  V30 60 1 80 81
M  V30 61 1 82 83
M  V30 62 1 83 84
M  V30 63 1 85 86
M  V30 64 1 86 87
M  V30 65 1 88 89
M  V30 66 1 89 90
M  V30 67 1 91 92
M  V30 68 1 92 93
M  V30 69 1 94 95
M  V30 70 1 95 96
M  V30 71 1 97 98
M  V30 72 1 98 99
M  V30 73 1 2 73
M  V30 74 1 3 67
M  V30 75 1 4 61
M  V30 76 1 5 64
M  V30 77 1 7 46
M  V30 78 1 8 85
M  V30 79 1 9 91
M  V30 80 1 10 82
M  V30 81 1 12 55
M  V30 82 1 13 70
M  V30 83 1 14 88
M  V30 84 1 15 52
M  V30 85 1 17 90
M  V30 86 1 18 49
M  V30 87 1 19 79
M  V30 88 1 20 58
M  V30 89 1 22 48
M  V30 90 1 23 72
M  V30 91 1 24 81
M  V30 92 1 25 76
M  V30 93 1 27 51
M  V30 94 1 28 97
M  V30 95 1 29 63
M  V30 96 1 30 60
M  V30 97 1 32 75
M  V30 98 1 33 99
M  V30 99 1 34 54
M  V30 100 1 35 57
M  V30 101 1 37 78
M  V30 102 1 38 94
M  V30 103 1 39 93
M  V30 104 1 40 66
M  V30 105 1 42 87
M  V30 106 1 43 69
M  V30 107 1 44 96
M  V30 108 1 45 84
M  V30 END BOND
M  V30 END CTAB
M  END

$$$$
