
     RDKit          3D

  0  0  0  0  0  0  0  0  0  0999 V3000
M  V30 BEGIN CTAB
M  V30 COUNTS 99 108 0 0 0
M  V30 BEGIN ATOM
M  V30 1 Pd 1.0661 5.3701 1.3100 0
M  V30 2 Pb 0.1686 5.2233 1.7197 0
M  V30 3 Pb 1.9608 5.5700 0.9060 0
M  V30 4 Pb 1.4693 5.3357 2.2296 0
M  V30 5 Pb 0.6513 5.3442 0.3978 0
M  V30 6 Pd -5.9001 -2.9178 -2.9192 0
M  V30 7 Pb -5.7386 -3.2971 -2.0041 0
M  V30 8 Pb -6.0140 -2.5548 -3.8459 0
M  V30 9 Pb -5.8764 -1.9777 -2.5875 0
M  V30 10 Pb -5.7933 -3.8254 -3.3187 0
M  V30 11 Pd -0.5419 1.9495 -3.2922 0
M  V30 12 Pb -0.4574 2.7972 -2.7549 0
M  V30 13 Pb -0.6213 1.2289 -3.9907 0
M  V30 14 Pb 0.4457 1.8623 -3.4085 0
M  V30 15 Pb -1.5235 1.9415 -3.1032 0
M  V30 16 Pd -2.3700 -3.1152 -5.8827 0
M  V30 17 Pb -3.1714 -2.6903 -6.2965 0
M  V30 18 Pb -2.9192 -3.9386 -5.7313 0
M  V30 19 Pb -1.8370 -2.2729 -5.9801 0
M  V30 20 Pb -1.6425 -3.5081 -5.3312 0
M  V30 21 Pd 2.4319 -2.0107 4.7308 0
M  V30 22 Pb 3.3259 -1.6325 4.9490 0
M  V30 23 Pb 2.8304 -2.4320 3.8952 0
M  V30 24 Pb 1.5318 -2.2767 4.3971 0
M  V30 25 Pb 2.0566 -1.5238 5.5233 0
M  V30 26 Pd 4.1344 2.1386 0.2556 0
M  V30 27 Pb 3.4257 1.6335 0.7574 0
M  V30 28 Pb 4.9365 2.0365 -0.3242 0
M  V30 29 Pb 4.7315 2.0341 1.0464 0
M  V30 30 Pb 4.5253 3.0183 0.0091 0
M  V30 31 Pd -0.3717 2.6326 5.5480 0
M  V30 32 Pb -0.8949 3.2342 4.9485 0
M  V30 33 Pb -1.1489 2.0107 5.5671 0
M  V30 34 Pb 0.4127 3.2501 5.4526 0
M  V30 35 Pb 0.1308 1.9852 6.1260 0
M  V30 36 Pd -2.0888 -2.7575 1.2247 0
M  V30 37 Pb -2.5751 -2.3506 1.9925 0
M  V30 38 Pb -2.9194 -3.2568 0.9643 0
M  V30 39 Pb -1.2886 -2.2093 1.4866 0
M  V30 40 Pb -1.5722 -3.1695 0.4780 0
M  V30 41 Pd 3.2462 -1.4787 -1.0715 0
M  V30 42 Pb 4.2108 -1.2795 -1.2533 0
M  V30 43 Pb 3.4566 -2.0592 -0.2650 0
M  V30 44 Pb 2.2826 -1.6624 -0.8898 0
M  V30 45 Pb 3.0563 -0.8229 -1.8090 0
M  V30 46 Ag -1.1821 -3.7601 -4.8049 0
M  V30 47 Fe -1.0296 -3.7054 -2.4421 0
M  V30 48 Ag -1.1846 -3.4584 -0.0913 0
M  V30 49 Ag 0.9514 -2.4018 3.9505 0
M  V30 50 Fe 0.8481 -2.2242 1.5962 0
M  V30 51 Ag 1.6159 -1.8358 -0.6055 0
M  V30 52 Ag 3.9562 -1.2399 4.9631 0
M  V30 53 Fe 4.8421 0.3864 3.4936 0
M  V30 54 Ag 5.1097 1.8608 1.6643 0
M  V30 55 Ag 2.9328 1.2262 1.1582 0
M  V30 56 Fe 1.0973 -0.2736 1.3742 0
M  V30 57 Ag -0.7234 -1.7671 1.7202 0
M  V30 58 Ag -1.7070 1.5218 5.4988 0
M  V30 59 Fe -2.4436 -0.2720 4.1390 0
M  V30 60 Ag -2.8681 -2.0102 2.5872 0
M  V30 61 Ag -5.7636 -1.2541 -2.4384 0
M  V30 62 Fe -4.0878 0.4168 -2.6164 0
M  V30 63 Ag -2.2430 1.8826 -2.9012 0
M  V30 64 Ba 1.8308 -1.1211 6.1186 0
M  V30 65 Ga 1.1411 0.1709 6.3284 0
M  V30 66 Ba 0.4532 1.4604 6.5593 0
M  V30 67 Ba -5.6116 -3.6233 -1.3365 0
M  V30 68 Ga -4.5713 -3.5943 -0.2843 0
M  V30 69 Ba -3.5650 -3.6094 0.8006 0
M  V30 70 Ba 0.3233 5.3315 -0.2793 0
M  V30 71 Ga -0.0251 4.3467 -1.3297 0
M  V30 72 Ba -0.4428 3.4988 -2.4698 0
M  V30 73 Ba -0.4942 5.1321 2.0529 0
M  V30 74 Ga -0.9157 4.4054 3.2606 0
M  V30 75 Ba -1.2846 3.6619 4.4753 0
M  V30 76 Ba -6.0429 -2.2981 -4.5517 0
M  V30 77 Ga -4.9966 -2.3002 -5.5899 0
M  V30 78 Ba -3.8305 -2.3939 -6.4858 0
M  V30 79 Ba 5.4903 1.7488 -0.7290 0
M  V30 80 Ga 5.3576 0.3508 -1.1595 0
M  V30 81 Ba 4.8946 -1.0192 -1.4230 0
M  V30 82 Ba 3.1515 -2.7619 3.2820 0
M  V30 83 Ga 3.3416 -2.5731 1.8112 0
M  V30 84 Ba 3.6033 -2.5037 0.3409 0
M  V30 85 Ba 1.1720 1.7071 -3.5061 0
M  V30 86 Ga 2.0783 0.7050 -2.9054 0
M  V30 87 Ba 3.0194 -0.2841 -2.3376 0
M  V30 88 Ba 2.6340 5.7092 0.6020 0
M  V30 89 Ga 3.7233 4.8037 0.2054 0
M  V30 90 Ba 4.6783 3.7342 -0.1188 0
M  V30 91 Ba 1.7547 5.2819 2.9262 0
M  V30 92 Ga 1.3827 4.5140 4.1366 0
M  V30 93 Ba 0.9793 3.7303 5.3267 0
M  V30 94 Ba -0.5965 0.7903 -4.6074 0
M  V30 95 Ga -1.0612 -0.4561 -5.2564 0
M  V30 96 Ba -1.4224 -1.6505 -6.0537 0
M  V30 97 Ba -5.6166 -4.4526 -3.6845 0
M  V30 98 Ga -4.5100 -4.5878 -4.6478 0
M  V30 99 Ba -3.3644 -4.5223 -5.5725 0
M  V30 END ATOM
M  V30 BEGIN BOND
M  V30 1 1 1 2
M  V30 2 1 1 3
M  V30 3 1 1 4
M  V30 4 1 1 5
M  V30 5 1 6 7
M  V30 6 1 6 8
M  V30 7 1 6 9
M  V30 8 1 6 10
M  V30 9 1 11 12
M  V30 10 1 11 13
M  V30 11 1 11 14
M  V30 12 1 11 15
M  V30 13 1 16 17
M  V30 14 1 16 18
M  V30 15 1 16 19
M  V30 16 1 16 20
M  V30 17 1 21 22
M  V30 18 1 21 23
M  V30 19 1 21 24
M  V30 20 1 21 25
M  V30 21 1 26 27
M  V30 22 1 26 28
M  V30 23 1 26 29
M  V30 24 1 26 30
M  V30 25 1 31 32
M  V30 26 1 31 33
M  V30 27 1 31 34
M  V30 28 1 31 35
M  V30 29 1 36 37
M  V30 30 1 36 38
M  V30 31 1 36 39
M  V30 32 1 36 40
M  V30 33 1 41 42
M  V30 34 1 41 43
M  V30 35 1 41 44
M  V30 36 1 41 45
M  V30 37 1 46 47
M  V30 38 1 47 48
M  V30 39 1 49 50
M  V30 40 1 50 51
M  V30 41 1 52 53
M  V30 42 1 53 54
M  V30 43 1 55 56
M  V30 44 1 56 57
M  V30 45 1 58 59
M  V30 46 1 59 60
M  V30 47 1 61 62
M  V30 48 1 62 63
M  V30 49 1 64 65
M  V30 50 1 65 66
M  V30 51 1 67 68
M  V30 52 1 68 69
M  V30 53 1 70 71
M  V30 54 1 71 72
M  V30 55 1 73 74
M  V30 56 1 74 75
M  V30 57 1 76 77
M  V30 58 1 77 78
M  V30 59 1 79 80
M  V30 60 1 80 81
M  V30 61 1 82 83
M  V30 62 1 83 84
M  V30 63 1 85 86
M  V30 64 1 86 87
M  V30 65 1 88 89
M  V30 66 1 89 90
M  V30 67 1 91 92
M  V30 68 1 92 93
M  V30 69 1 94 95
M  V30 70 1 95 96
M  V30 71 1 97 98
M  V30 72 1 98 99
M  V30 73 1 2 73
M  V30 74 1 3 88
M  V30 75 1 4 91
M  V30 76 1 5 70
M  V30 77 1 7 67
M  V30 78 1 8 76
M  V30 79 1 9 61
M  V30 80 1 10 97
M  V30 81 1 12 72
M  V30 82 1 13 94
M  V30 83 1 14 85
M  V30 84 1 15 63
M  V30 85 1 17 78
M  V30 86 1 18 99
M  V30 87 1 19 96
M  V30 88 1 20 46
M  V30 89 1 22 52
M  V30 90 1 23 82
M  V30 91 1 24 49
M  V30 92 1 25 64
M  V30 93 1 27 55
M  V30 94 1 28 79
M  V30 95 1 29 54
M  V30 96 1 30 90
M  V30 97 1 32 75
M  V30 98 1 33 58
M  V30 99 1 34 93
M  V30 100 1 35 66
M  V30 101 1 37 60
M  V30 102 1 38 69
M  V30 103 1 39 57
M  V30 104 1 40 48
M  V30 105 1 42 81
M  V30 106 1 43 84
M  V30 107 1 44 51
M  V30 108 1 45 87
M  V30 END BOND
M  V30 END CTAB
M  END

$$$$
