
     RDKit          3D

  0  0  0  0  0  0  0  0  0  0999 V3000
M  V30 BEGIN CTAB
M  V30 COUNTS 99 108 0 0 0
M  V30 BEGIN ATOM
M  V30 1 Pd 3.2286 2.0981 -1.8043 0
M  V30 2 Pb 2.7958 2.8775 -2.2568 0
M  V30 3 Pb 2.8216 1.5474 -2.5363 0
M  V30 4 Pb 3.6430 2.6649 -1.0860 0
M  V30 5 Pb 3.6649 1.3046 -1.3750 0
M  V30 6 Pd -0.0373 -7.1681 -3.3449 0
M  V30 7 Pb -0.6339 -6.9617 -2.5668 0
M  V30 8 Pb 0.5130 -7.4069 -4.1429 0
M  V30 9 Pb 0.6279 -7.6331 -2.7546 0
M  V30 10 Pb -0.6457 -6.6529 -3.9557 0
M  V30 11 Pd -6.0900 2.6931 1.6644 0
M  V30 12 Pb -6.3499 2.4493 0.7372 0
M  V30 13 Pb -6.1966 1.7416 1.9520 0
M  V30 14 Pb -5.8545 2.9105 2.6121 0
M  V30 15 Pb -5.8947 3.6423 1.3444 0
M  V30 16 Pd -0.5887 3.4102 6.6636 0
M  V30 17 Pb -1.5799 3.3256 6.7333 0
M  V30 18 Pb -0.6933 4.3842 6.8193 0
M  V30 19 Pb -0.5096 2.4179 6.5689 0
M  V30 20 Pb 0.3917 3.5500 6.4175 0
M  V30 21 Pd -2.0566 -3.6011 3.3205 0
M  V30 22 Pb -2.3155 -4.2204 2.5789 0
M  V30 23 Pb -2.9470 -3.1462 3.2636 0
M  V30 24 Pb -1.7509 -2.9823 4.0442 0
M  V30 25 Pb -1.1738 -4.0629 3.3770 0
M  V30 26 Pd 2.7293 5.9964 2.6731 0
M  V30 27 Pb 2.2752 6.6873 3.2203 0
M  V30 28 Pb 2.4698 6.5505 1.8873 0
M  V30 29 Pb 3.2667 5.3598 2.1112 0
M  V30 30 Pb 2.8133 5.4058 3.5003 0
M  V30 31 Pd -2.9904 6.0513 -2.1070 0
M  V30 32 Pb -2.2446 5.9447 -2.7593 0
M  V30 33 Pb -2.3357 6.6224 -1.6151 0
M  V30 34 Pb -3.6867 6.0645 -1.3623 0
M  V30 35 Pb -3.5943 5.4739 -2.6442 0
M  V30 36 Pd 4.2451 -5.5083 -0.4588 0
M  V30 37 Pb 3.8038 -5.5843 0.4322 0
M  V30 38 Pb 4.6626 -5.3909 -1.3577 0
M  V30 39 Pb 3.8748 -6.4091 -0.7007 0
M  V30 40 Pb 4.5445 -4.5800 -0.2380 0
M  V30 41 Pd 1.5659 -3.9527 -6.6239 0
M  V30 42 Pb 1.6839 -4.9274 -6.7914 0
M  V30 43 Pb 1.4604 -2.9903 -6.3744 0
M  V30 44 Pb 2.5507 -3.8958 -6.4956 0
M  V30 45 Pb 0.5779 -4.1010 -6.5815 0
M  V30 46 Ag -1.1194 -6.8224 -2.0095 0
M  V30 47 Fe -1.7833 -5.7492 0.0041 0
M  V30 48 Ag -2.4746 -4.6915 2.0168 0
M  V30 49 Ag 2.4296 3.3979 -2.6542 0
M  V30 50 Fe 0.4516 4.6677 -2.9849 0
M  V30 51 Ag -1.6022 5.8484 -3.1282 0
M  V30 52 Ag -0.5104 -4.4068 3.4082 0
M  V30 53 Fe 1.4861 -5.0396 2.2945 0
M  V30 54 Ag 3.4422 -5.6202 1.0851 0
M  V30 55 Ag -0.4825 1.6688 6.5454 0
M  V30 56 Fe -0.9942 -0.4156 5.5282 0
M  V30 57 Ag -1.4642 -2.5415 4.5793 0
M  V30 58 Ag -0.6945 5.1214 6.8338 0
M  V30 59 Fe 0.4437 6.6457 5.4579 0
M  V30 60 Ag 1.9003 7.1263 3.6799 0
M  V30 61 Ag -6.4602 2.3667 0.0104 0
M  V30 62 Fe -5.5061 3.4535 -1.8469 0
M  V30 63 Ag -4.0805 4.9892 -2.9192 0
M  V30 64 Ag -5.6894 3.0047 3.3384 0
M  V30 65 Fe -4.0679 3.1636 5.0653 0
M  V30 66 Ag -2.3246 3.3129 6.6699 0
M  V30 67 Ag 4.0162 0.7376 -1.0274 0
M  V30 68 Fe 4.3744 -1.5666 -0.5690 0
M  V30 69 Ag 4.7401 -3.8682 -0.1043 0
M  V30 70 Ag 4.9322 -5.2284 -2.0359 0
M  V30 71 Fe 4.3066 -4.5733 -4.2257 0
M  V30 72 Ag 3.2527 -3.9587 -6.2566 0
M  V30 73 Ag 2.4867 1.2161 -3.1231 0
M  V30 74 Fe 1.9687 -0.5623 -4.6120 0
M  V30 75 Ag 1.3890 -2.2778 -6.1513 0
M  V30 76 Ag 2.1285 6.9727 1.3743 0
M  V30 77 Fe 0.2134 7.0716 -0.0234 0
M  V30 78 Ag -1.7489 7.0103 -1.3567 0
M  V30 79 Ag -6.2163 1.0266 2.1773 0
M  V30 80 Fe -4.9488 -0.9132 2.7016 0
M  V30 81 Ag -3.6199 -2.8158 3.2103 0
M  V30 82 Ba -5.7608 4.3635 1.1095 0
M  V30 83 Ga -4.9519 5.1579 0.1282 0
M  V30 84 Ba -4.2087 6.0745 -0.7969 0
M  V30 85 Ba -1.0556 -6.2441 -4.4395 0
M  V30 86 Ga -0.6609 -5.2558 -5.4673 0
M  V30 87 Ba -0.1381 -4.2892 -6.4575 0
M  V30 88 Ba 0.8911 -7.5616 -4.7697 0
M  V30 89 Ga 1.3614 -6.6742 -5.8430 0
M  V30 90 Ba 1.7725 -5.6667 -6.8310 0
M  V30 91 Ba 1.1262 3.6560 6.2090 0
M  V30 92 Ga 1.9409 4.3331 5.1457 0
M  V30 93 Ba 2.8493 4.9699 4.1345 0
M  V30 94 Ba 1.1612 -7.9720 -2.3437 0
M  V30 95 Ga 2.3592 -7.5213 -1.6001 0
M  V30 96 Ba 3.5583 -7.0755 -0.8552 0
M  V30 97 Ba 4.0112 3.0390 -0.5443 0
M  V30 98 Ga 3.7898 3.9892 0.5691 0
M  V30 99 Ba 3.7404 4.9282 1.7125 0
M  V30 END ATOM
M  V30 BEGIN BOND
M  V30 1 1 1 2
M  V30 2 1 1 3
M  V30 3 1 1 4
M  V30 4 1 1 5
M  V30 5 1 6 7
M  V30 6 1 6 8
M  V30 7 1 6 9
M  V30 8 1 6 10
M  V30 9 1 11 12
M  V30 10 1 11 13
M  V30 11 1 11 14
M  V30 12 1 11 15
M  V30 13 1 16 17
M  V30 14 1 16 18
M  V30 15 1 16 19
M  V30 16 1 16 20
M  V30 17 1 21 22
M  V30 18 1 21 23
M  V30 19 1 21 24
M  V30 20 1 21 25
M  V30 21 1 26 27
M  V30 22 1 26 28
M  V30 23 1 26 29
M  V30 24 1 26 30
M  V30 25 1 31 32
M  V30 26 1 31 33
M  V30 27 1 31 34
M  V30 28 1 31 35
M  V30 29 1 36 37
M  V30 30 1 36 38
M  V30 31 1 36 39
M  V30 32 1 36 40
M  V30 33 1 41 42
M  V30 34 1 41 43
M  V30 35 1 41 44
M  V30 36 1 41 45
M  V30 37 1 46 47
M  V30 38 1 47 48
M  V30 39 1 49 50
M  V30 40 1 50 51
M  V30 41 1 52 53
M  V30 42 1 53 54
M  V30 43 1 55 56
M  V30 44 1 56 57
M  V30 45 1 58 59
M  V30 46 1 59 60
M  V30 47 1 61 62
M  V30 48 1 62 63
M  V30 49 1 64 65
M  V30 50 1 65 66
M  V30 51 1 67 68
M  V30 52 1 68 69
M  V30 53 1 70 71
M  V30 54 1 71 72
M  V30 55 1 73 74
M  V30 56 1 74 75
M  V30 57 1 76 77
M  V30 58 1 77 78
M  V30 59 1 79 80
M  V30 60 1 80 81
M  V30 61 1 82 83
M  V30 62 1 83 84
M  V30 63 1 85 86
M  V30 64 1 86 87
M  V30 65 1 88 89
M  V30 66 1 89 90
M  V30 67 1 91 92
M  V30 68 1 92 93
M  V30 69 1 94 95
M  V30 70 1 95 96
M  V30 71 1 97 98
M  V30 72 1 98 99
M  V30 73 1 2 49
M  V30 74 1 3 73
M  V30 75 1 4 97
M  V30 76 1 5 67
M  V30 77 1 7 46
M  V30 78 1 8 88
M  V30 79 1 9 94
M  V30 80 1 10 85
M  V30 81 1 12 61
M  V30 82 1 13 79
M  V30 83 1 14 64
M  V30 84 1 15 82
M  V30 85 1 17 66
M  V30 86 1 18 58
M  V30 87 1 19 55
M  V30 88 1 20 91
M  V30 89 1 22 48
M  V30 90 1 23 81
M  V30 91 1 24 57
M  V30 92 1 25 52
M  V30 93 1 27 60
M  V30 94 1 28 76
M  V30 95 1 29 99
M  V30 96 1 30 93
M  V30 97 1 32 51
M  V30 98 1 33 78
M  V30 99 1 34 84
M  V30 100 1 35 63
M  V30 101 1 37 54
M  V30 102 1 38 70
M  V30 103 1 39 96
M  V30 104 1 40 69
M  V30 105 1 42 90
M  V30 106 1 43 75
M  V30 107 1 44 72
M  V30 108 1 45 87
M  V30 END BOND
M  V30 END CTAB
M  END

$$$$
