
     RDKit          3D

  0  0  0  0  0  0  0  0  0  0999 V3000
M  V30 BEGIN CTAB
M  V30 COUNTS 99 108 0 0 0
M  V30 BEGIN ATOM
M  V30 1 Pd 3.9910 0.4420 0.4231 0
M  V30 2 Pb 4.2895 1.3882 0.3141 0
M  V30 3 Pb 3.1494 0.6865 -0.0559 0
M  V30 4 Pb 4.8433 0.2425 0.9088 0
M  V30 5 Pb 3.6641 -0.4991 0.5384 0
M  V30 6 Pd -4.0544 -1.3944 -7.0108 0
M  V30 7 Pb -4.6579 -1.5660 -6.2296 0
M  V30 8 Pb -4.1348 -0.4027 -6.9040 0
M  V30 9 Pb -3.8648 -2.3709 -7.0591 0
M  V30 10 Pb -3.4148 -1.2328 -7.7609 0
M  V30 11 Pd -2.7771 4.2877 2.3997 0
M  V30 12 Pb -2.6581 4.8331 3.2202 0
M  V30 13 Pb -2.9466 3.7369 1.5795 0
M  V30 14 Pb -3.3516 3.6811 2.9390 0
M  V30 15 Pb -2.0224 4.8030 1.9535 0
M  V30 16 Pd -0.7196 -1.8447 5.7743 0
M  V30 17 Pb -1.4100 -1.1237 5.7402 0
M  V30 18 Pb -0.0224 -1.2462 6.2234 0
M  V30 19 Pb -1.3388 -2.3936 5.2186 0
M  V30 20 Pb -0.0857 -2.6065 5.8024 0
M  V30 21 Pd -4.0840 -2.5777 -1.2793 0
M  V30 22 Pb -4.5490 -2.4696 -2.1650 0
M  V30 23 Pb -4.0492 -1.5789 -1.1923 0
M  V30 24 Pb -3.7657 -2.7213 -0.3417 0
M  V30 25 Pb -4.0253 -3.5744 -1.3632 0
M  V30 26 Pd 4.7733 0.3511 5.3728 0
M  V30 27 Pb 3.9197 0.3496 5.9350 0
M  V30 28 Pb 4.8531 1.3515 5.3792 0
M  V30 29 Pb 5.5308 0.3030 4.7259 0
M  V30 30 Pb 4.7842 -0.6396 5.3995 0
M  V30 31 Pd 2.9386 5.1559 3.0360 0
M  V30 32 Pb 3.4410 4.8257 2.2362 0
M  V30 33 Pb 3.6806 4.8649 3.6396 0
M  V30 34 Pb 2.1263 5.3880 2.4626 0
M  V30 35 Pb 2.4864 5.5438 3.8296 0
M  V30 36 Pd 0.0129 -5.2824 -2.6605 0
M  V30 37 Pb -0.7881 -5.6439 -2.1808 0
M  V30 38 Pb 0.7321 -4.8205 -3.1792 0
M  V30 39 Pb -0.4668 -5.4914 -3.5094 0
M  V30 40 Pb 0.4863 -5.0244 -1.8165 0
M  V30 41 Pd -0.0805 0.9431 -6.1388 0
M  V30 42 Pb -0.9149 1.4885 -6.2282 0
M  V30 43 Pb 0.0043 1.1985 -5.1775 0
M  V30 44 Pb 0.6696 0.2941 -6.0151 0
M  V30 45 Pb -0.2152 0.6316 -7.0769 0
M  V30 46 Ag -1.7780 -2.7631 4.7402 0
M  V30 47 Fe -2.6806 -2.8106 2.5442 0
M  V30 48 Ag -3.6185 -2.9265 0.3658 0
M  V30 49 Ag -2.4449 5.2132 3.8162 0
M  V30 50 Fe -0.2943 5.7912 4.5664 0
M  V30 51 Ag 2.0462 5.8139 4.3573 0
M  V30 52 Ag 0.4737 -3.0867 5.8003 0
M  V30 53 Fe 2.7898 -2.7309 5.6340 0
M  V30 54 Ag 4.6957 -1.3711 5.4381 0
M  V30 55 Ag -3.6333 3.1849 3.4175 0
M  V30 56 Fe -2.9230 1.2534 4.5959 0
M  V30 57 Ag -1.9815 -0.6456 5.6604 0
M  V30 58 Ag -3.6411 -3.0809 -7.0176 0
M  V30 59 Fe -2.2835 -4.4860 -5.6766 0
M  V30 60 Ag -0.8670 -5.5923 -4.1319 0
M  V30 61 Ag 3.3917 -1.1960 0.6212 0
M  V30 62 Fe 2.1395 -3.0151 -0.2601 0
M  V30 63 Ag 0.8738 -4.7852 -1.2185 0
M  V30 64 Ag 1.2062 -4.3987 -3.5785 0
M  V30 65 Fe 1.3445 -2.3484 -4.7682 0
M  V30 66 Ag 1.1599 -0.2546 -5.8727 0
M  V30 67 Ag 2.5356 0.9179 -0.4175 0
M  V30 68 Fe 1.2884 1.1359 -2.4251 0
M  V30 69 Ag 0.0587 1.3411 -4.4448 0
M  V30 70 Ag -3.1173 3.3266 0.9723 0
M  V30 71 Fe -3.5449 1.2304 -0.0665 0
M  V30 72 Ag -3.9858 -0.8286 -1.1718 0
M  V30 73 Ba -5.1120 -1.7253 -5.6517 0
M  V30 74 Ga -4.9840 -2.0438 -4.2116 0
M  V30 75 Ba -4.9941 -2.3754 -2.7691 0
M  V30 76 Ba 4.4887 2.1046 0.2301 0
M  V30 77 Ga 4.1628 3.3534 0.9426 0
M  V30 78 Ba 3.8475 4.6121 1.6424 0
M  V30 79 Ba -3.9036 -4.3171 -1.3503 0
M  V30 80 Ga -2.6964 -5.1286 -1.6182 0
M  V30 81 Ba -1.4505 -5.8715 -1.9070 0
M  V30 82 Ba 0.5002 -0.7879 6.5609 0
M  V30 83 Ga 1.8979 -0.2619 6.3962 0
M  V30 84 Ba 3.2744 0.3390 6.3592 0
M  V30 85 Ba -1.4239 5.1729 1.6454 0
M  V30 86 Ga 0.0476 5.3379 1.8820 0
M  V30 87 Ba 1.5214 5.5747 2.0227 0
M  V30 88 Ba -2.8946 -1.0835 -8.2780 0
M  V30 89 Ga -1.6202 -0.3682 -8.1092 0
M  V30 90 Ba -0.3971 0.3667 -7.7514 0
M  V30 91 Ba -4.0921 0.3420 -6.8185 0
M  V30 92 Ga -2.8869 1.1546 -6.5588 0
M  V30 93 Ba -1.5894 1.8108 -6.3010 0
M  V30 94 Ba 5.4855 0.1460 1.2864 0
M  V30 95 Ga 5.8146 0.1766 2.7230 0
M  V30 96 Ba 6.0347 0.2225 4.1797 0
M  V30 97 Ba 5.0048 2.0898 5.3911 0
M  V30 98 Ga 4.5776 3.3470 4.7426 0
M  V30 99 Ba 4.1978 4.6388 4.1335 0
M  V30 END ATOM
M  V30 BEGIN BOND
M  V30 1 1 1 2
M  V30 2 1 1 3
M  V30 3 1 1 4
M  V30 4 1 1 5
M  V30 5 1 6 7
M  V30 6 1 6 8
M  V30 7 1 6 9
M  V30 8 1 6 10
M  V30 9 1 11 12
M  V30 10 1 11 13
M  V30 11 1 11 14
M  V30 12 1 11 15
M  V30 13 1 16 17
M  V30 14 1 16 18
M  V30 15 1 16 19
M  V30 16 1 16 20
M  V30 17 1 21 22
M  V30 18 1 21 23
M  V30 19 1 21 24
M  V30 20 1 21 25
M  V30 21 1 26 27
M  V30 22 1 26 28
M  V30 23 1 26 29
M  V30 24 1 26 30
M  V30 25 1 31 32
M  V30 26 1 31 33
M  V30 27 1 31 34
M  V30 28 1 31 35
M  V30 29 1 36 37
M  V30 30 1 36 38
M  V30 31 1 36 39
M  V30 32 1 36 40
M  V30 33 1 41 42
M  V30 34 1 41 43
M  V30 35 1 41 44
M  V30 36 1 41 45
M  V30 37 1 46 47
M  V30 38 1 47 48
M  V30 39 1 49 50
M  V30 40 1 50 51
M  V30 41 1 52 53
M  V30 42 1 53 54
M  V30 43 1 55 56
M  V30 44 1 56 57
M  V30 45 1 58 59
M  V30 46 1 59 60
M  V30 47 1 61 62
M  V30 48 1 62 63
M  V30 49 1 64 65
M  V30 50 1 65 66
M  V30 51 1 67 68
M  V30 52 1 68 69
M  V30 53 1 70 71
M  V30 54 1 71 72
M  V30 55 1 73 74
M  V30 56 1 74 75
M  V30 57 1 76 77
M  V30 58 1 77 78
M  V30 59 1 79 80
M  V30 60 1 80 81
M  V30 61 1 82 83
M  V30 62 1 83 84
M  V30 63 1 85 86
M  V30 64 1 86 87
M  V30 65 1 88 89
M  V30 66 1 89 90
M  V30 67 1 91 92
M  V30 68 1 92 93
M  V30 69 1 94 95
M  V30 70 1 95 96
M  V30 71 1 97 98
M  V30 72 1 98 99
M  V30 73 1 2 76
M  V30 74 1 3 67
M  V30 75 1 4 94
M  V30 76 1 5 61
M  V30 77 1 7 73
M  V30 78 1 8 91
M  V30 79 1 9 58
M  V30 80 1 10 88
M  V30 81 1 12 49
M  V30 82 1 13 70
M  V30 83 1 14 55
M  V30 84 1 15 85
M  V30 85 1 17 57
M  V30 86 1 18 82
M  V30 87 1 19 46
M  V30 88 1 20 52
M  V30 89 1 22 75
M  V30 90 1 23 72
M  V30 91 1 24 48
M  V30 92 1 25 79
M  V30 93 1 27 84
M  V30 94 1 28 97
M  V30 95 1 29 96
M  V30 96 1 30 54
M  V30 97 1 32 78
M  V30 98 1 33 99
M  V30 99 1 34 87
M  V30 100 1 35 51
M  V30 101 1 37 81
M  V30 102 1 38 64
M  V30 103 1 39 60
M  V30 104 1 40 63
M  V30 105 1 42 93
M  V30 106 1 43 69
M  V30 107 1 44 66
M  V30 108 1 45 90
M  V30 END BOND
M  V30 END CTAB
M  END

$$$$
