
     RDKit          3D

  0  0  0  0  0  0  0  0  0  0999 V3000
M  V30 BEGIN CTAB
M  V30 COUNTS 99 108 0 0 0
M  V30 BEGIN ATOM
M  V30 1 Pd -3.3372 1.0855 -2.7920 0
M  V30 2 Pb -2.8835 0.2377 -3.0902 0
M  V30 3 Pb -3.3209 1.4377 -3.7341 0
M  V30 4 Pb -3.4250 0.7515 -1.8548 0
M  V30 5 Pb -3.8096 1.9144 -2.4844 0
M  V30 6 Pd -2.0960 0.7754 5.1021 0
M  V30 7 Pb -1.6248 0.6695 5.9736 0
M  V30 8 Pb -1.2882 1.2445 4.7477 0
M  V30 9 Pb -2.5201 0.7241 4.1984 0
M  V30 10 Pb -2.8048 0.1568 5.4259 0
M  V30 11 Pd 1.8336 -1.8826 4.9464 0
M  V30 12 Pb 2.2904 -2.1363 4.0920 0
M  V30 13 Pb 1.8519 -0.9207 4.6626 0
M  V30 14 Pb 1.7282 -2.8455 5.2112 0
M  V30 15 Pb 1.4160 -1.5857 5.8059 0
M  V30 16 Pd -0.5540 -4.0484 -1.4647 0
M  V30 17 Pb -0.1458 -4.7595 -0.8961 0
M  V30 18 Pb 0.3765 -3.8113 -1.7381 0
M  V30 19 Pb -1.4543 -4.3116 -1.1106 0
M  V30 20 Pb -0.9454 -3.3776 -2.1078 0
M  V30 21 Pd 2.8429 1.2559 1.1866 0
M  V30 22 Pb 2.4866 2.2063 1.2110 0
M  V30 23 Pb 3.5595 1.5341 0.5410 0
M  V30 24 Pb 3.1547 0.3059 1.1943 0
M  V30 25 Pb 2.1382 0.9994 1.8403 0
M  V30 26 Pd -1.5186 -5.7208 3.3190 0
M  V30 27 Pb -2.1549 -5.6514 2.5448 0
M  V30 28 Pb -0.8342 -6.0971 2.7037 0
M  V30 29 Pb -0.8357 -5.7064 4.0541 0
M  V30 30 Pb -2.2006 -5.3082 3.9188 0
M  V30 31 Pd 0.0712 3.3114 -6.5403 0
M  V30 32 Pb 1.0751 3.4249 -6.4367 0
M  V30 33 Pb -0.0753 4.0756 -5.9179 0
M  V30 34 Pb 0.2266 2.5523 -7.1639 0
M  V30 35 Pb -0.9111 3.1207 -6.5413 0
M  V30 36 Pd -1.8348 4.7443 0.4806 0
M  V30 37 Pb -1.5687 5.2718 -0.3205 0
M  V30 38 Pb -2.0850 4.1715 1.2542 0
M  V30 39 Pb -2.7553 4.6771 0.0992 0
M  V30 40 Pb -0.8680 4.7205 0.7844 0
M  V30 41 Pd 4.5973 0.7158 -4.2080 0
M  V30 42 Pb 4.6476 -0.1569 -3.7340 0
M  V30 43 Pb 4.3913 0.2149 -5.0422 0
M  V30 44 Pb 4.3887 1.5783 -4.6981 0
M  V30 45 Pb 4.8157 1.2048 -3.3603 0
M  V30 46 Ag 1.1003 -3.6701 -1.8690 0
M  V30 47 Fe 2.8767 -2.2906 -2.6210 0
M  V30 48 Ag 4.5628 -0.8234 -3.4133 0
M  V30 49 Ag -3.2322 -0.4276 5.5968 0
M  V30 50 Fe -3.1767 -2.7431 5.1044 0
M  V30 51 Ag -2.6888 -4.9312 4.3401 0
M  V30 52 Ag -0.1825 4.6313 -5.4316 0
M  V30 53 Fe -0.7655 5.2272 -3.2135 0
M  V30 54 Ag -1.3717 5.6093 -0.9550 0
M  V30 55 Ag 0.4754 1.9594 -7.5301 0
M  V30 56 Fe 2.3034 0.5707 -7.0121 0
M  V30 57 Ag 4.1279 -0.0733 -5.6716 0
M  V30 58 Ag 1.5475 0.9156 2.2807 0
M  V30 59 Fe -0.5114 2.0548 2.4161 0
M  V30 60 Ag -2.1150 3.6650 1.7934 0
M  V30 61 Ag -3.5651 0.5481 -1.1475 0
M  V30 62 Fe -3.1356 0.6083 1.1873 0
M  V30 63 Ag -2.8483 0.5603 3.5440 0
M  V30 64 Ba 1.8285 3.5191 -6.3377 0
M  V30 65 Ga 2.9900 2.8295 -5.6987 0
M  V30 66 Ba 4.2048 2.2093 -5.0882 0
M  V30 67 Ba 0.1706 -5.3052 -0.4940 0
M  V30 68 Ga -0.0504 -5.8483 0.8529 0
M  V30 69 Ba -0.3312 -6.3354 2.2099 0
M  V30 70 Ba -3.3642 1.7082 -4.4386 0
M  V30 71 Ga -2.4878 2.3253 -5.4588 0
M  V30 72 Ba -1.6401 2.9443 -6.5022 0
M  V30 73 Ba 2.6540 -2.2732 3.4486 0
M  V30 74 Ga 3.0175 -1.3879 2.3244 0
M  V30 75 Ba 3.3306 -0.4210 1.2536 0
M  V30 76 Ba -4.1721 2.5163 -2.2150 0
M  V30 77 Ga -3.8252 3.5677 -1.2384 0
M  V30 78 Ba -3.4089 4.5873 -0.2554 0
M  V30 79 Ba -2.0933 -4.5458 -0.7881 0
M  V30 80 Ga -2.3795 -5.0575 0.5718 0
M  V30 81 Ba -2.6053 -5.5612 1.9460 0
M  V30 82 Ba -0.6207 1.4884 4.5095 0
M  V30 83 Ga 0.6330 0.7092 4.4524 0
M  V30 84 Ba 1.7988 -0.1984 4.4561 0
M  V30 85 Ba 4.1016 1.7844 0.0811 0
M  V30 86 Ga 4.5218 1.6464 -1.3304 0
M  V30 87 Ba 5.0062 1.5615 -2.7255 0
M  V30 88 Ba -1.2261 0.4831 6.5763 0
M  V30 89 Ga -0.0498 -0.4024 6.5911 0
M  V30 90 Ba 1.1063 -1.2999 6.4271 0
M  V30 91 Ba -2.5601 -0.3892 -3.3633 0
M  V30 92 Ga -1.8895 -1.6369 -2.9219 0
M  V30 93 Ba -1.2034 -2.9256 -2.6587 0
M  V30 94 Ba 2.2405 2.9280 1.2711 0
M  V30 95 Ga 1.0164 3.7664 1.1075 0
M  V30 96 Ba -0.1308 4.7133 0.9834 0
M  V30 97 Ba 1.6093 -3.5618 5.4156 0
M  V30 98 Ga 0.6608 -4.6207 5.0008 0
M  V30 99 Ba -0.2933 -5.6707 4.5763 0
M  V30 END ATOM
M  V30 BEGIN BOND
M  V30 1 1 1 2
M  V30 2 1 1 3
M  V30 3 1 1 4
M  V30 4 1 1 5
M  V30 5 1 6 7
M  V30 6 1 6 8
M  V30 7 1 6 9
M  V30 8 1 6 10
M  V30 9 1 11 12
M  V30 10 1 11 13
M  V30 11 1 11 14
M  V30 12 1 11 15
M  V30 13 1 16 17
M  V30 14 1 16 18
M  V30 15 1 16 19
M  V30 16 1 16 20
M  V30 17 1 21 22
M  V30 18 1 21 23
M  V30 19 1 21 24
M  V30 20 1 21 25
M  V30 21 1 26 27
M  V30 22 1 26 28
M  V30 23 1 26 29
M  V30 24 1 26 30
M  V30 25 1 31 32
M  V30 26 1 31 33
M  V30 27 1 31 34
M  V30 28 1 31 35
M  V30 29 1 36 37
M  V30 30 1 36 38
M  V30 31 1 36 39
M  V30 32 1 36 40
M  V30 33 1 41 42
M  V30 34 1 41 43
M  V30 35 1 41 44
M  V30 36 1 41 45
M  V30 37 1 46 47
M  V30 38 1 47 48
M  V30 39 1 49 50
M  V30 40 1 50 51
M  V30 41 1 52 53
M  V30 42 1 53 54
M  V30 43 1 55 56
M  V30 44 1 56 57
M  V30 45 1 58 59
M  V30 46 1 59 60
M  V30 47 1 61 62
M  V30 48 1 62 63
M  V30 49 1 64 65
M  V30 50 1 65 66
M  V30 51 1 67 68
M  V30 52 1 68 69
M  V30 53 1 70 71
M  V30 54 1 71 72
M  V30 55 1 73 74
M  V30 56 1 74 75
M  V30 57 1 76 77
M  V30 58 1 77 78
M  V30 59 1 79 80
M  V30 60 1 80 81
M  V30 61 1 82 83
M  V30 62 1 83 84
M  V30 63 1 85 86
M  V30 64 1 86 87
M  V30 65 1 88 89
M  V30 66 1 89 90
M  V30 67 1 91 92
M  V30 68 1 92 93
M  V30 69 1 94 95
M  V30 70 1 95 96
M  V30 71 1 97 98
M  V30 72 1 98 99
M  V30 73 1 2 91
M  V30 74 1 3 70
M  V30 75 1 4 61
M  V30 76 1 5 76
M  V30 77 1 7 88
M  V30 78 1 8 82
M  V30 79 1 9 63
M  V30 80 1 10 49
M  V30 81 1 12 73
M  V30 82 1 13 84
M  V30 83 1 14 97
M  V30 84 1 15 90
M  V30 85 1 17 67
M  V30 86 1 18 46
M  V30 87 1 19 79
M  V30 88 1 20 93
M  V30 89 1 22 94
M  V30 90 1 23 85
M  V30 91 1 24 75
M  V30 92 1 25 58
M  V30 93 1 27 81
M  V30 94 1 28 69
M  V30 95 1 29 99
M  V30 96 1 30 51
M  V30 97 1 32 64
M  V30 98 1 33 52
M  V30 99 1 34 55
M  V30 100 1 35 72
M  V30 101 1 37 54
M  V30 102 1 38 60
M  V30 103 1 39 78
M  V30 104 1 40 96
M  V30 105 1 42 48
M  V30 106 1 43 57
M  V30 107 1 44 66
M  V30 108 1 45 87
M  V30 END BOND
M  V30 END CTAB
M  END

$$$$
