
     RDKit          3D

  0  0  0  0  0  0  0  0  0  0999 V3000
M  V30 BEGIN CTAB
M  V30 COUNTS 99 108 0 0 0
M  V30 BEGIN ATOM
M  V30 1 Pd -0.0343 2.5697 4.0324 0
M  V30 2 Pb -0.4465 1.8914 4.6366 0
M  V30 3 Pb 0.4235 1.8063 3.5808 0
M  V30 4 Pb -0.5259 3.3204 4.4809 0
M  V30 5 Pb 0.3940 3.1838 3.3699 0
M  V30 6 Pd 7.2717 -4.6966 -1.4176 0
M  V30 7 Pb 6.4676 -4.7896 -2.0050 0
M  V30 8 Pb 8.0193 -4.4958 -0.7867 0
M  V30 9 Pb 7.6444 -4.0314 -2.0554 0
M  V30 10 Pb 6.8240 -5.2085 -0.6884 0
M  V30 11 Pd -4.2351 -2.2695 -2.2824 0
M  V30 12 Pb -5.0367 -2.1581 -1.6923 0
M  V30 13 Pb -3.4596 -2.4573 -2.8957 0
M  V30 14 Pb -4.7042 -1.7371 -2.9922 0
M  V30 15 Pb -3.8034 -2.8136 -1.5600 0
M  V30 16 Pd -5.3245 2.9769 -3.2273 0
M  V30 17 Pb -5.6254 2.1288 -3.6665 0
M  V30 18 Pb -4.9791 3.7800 -2.7385 0
M  V30 19 Pb -4.5288 2.9743 -3.8235 0
M  V30 20 Pb -6.0785 2.9668 -2.5751 0
M  V30 21 Pd 1.1246 -0.8919 -4.3452 0
M  V30 22 Pb 1.7462 -1.6612 -4.1753 0
M  V30 23 Pb 0.3553 -1.5384 -4.3522 0
M  V30 24 Pb 0.5105 -0.1459 -4.5876 0
M  V30 25 Pb 1.8650 -0.2147 -4.3764 0
M  V30 26 Pd -5.0471 4.6244 3.6776 0
M  V30 27 Pb -4.6917 5.1843 2.9300 0
M  V30 28 Pb -5.4094 3.9586 4.3256 0
M  V30 29 Pb -4.2532 4.8302 4.2538 0
M  V30 30 Pb -5.8017 4.3812 3.0704 0
M  V30 31 Pd -5.0229 -2.4285 2.9617 0
M  V30 32 Pb -4.3282 -2.3633 3.6736 0
M  V30 33 Pb -5.5588 -1.8151 3.5400 0
M  V30 34 Pb -4.4316 -2.9821 2.3726 0
M  V30 35 Pb -5.6939 -2.3846 2.2231 0
M  V30 36 Pd 5.1296 2.0389 -1.4374 0
M  V30 37 Pb 4.6336 2.0419 -2.3069 0
M  V30 38 Pb 5.6323 1.9824 -0.5715 0
M  V30 39 Pb 5.8216 1.4791 -1.8886 0
M  V30 40 Pb 4.4478 2.6249 -0.9939 0
M  V30 41 Pd 6.1537 -1.9329 2.1358 0
M  V30 42 Pb 7.1130 -2.2021 2.0524 0
M  V30 43 Pb 5.1859 -1.6897 2.1620 0
M  V30 44 Pb 6.3943 -0.9612 2.0760 0
M  V30 45 Pb 5.9155 -2.9067 2.1554 0
M  V30 46 Ag 5.8491 -4.7915 -2.4298 0
M  V30 47 Fe 4.0138 -3.5259 -3.2563 0
M  V30 48 Ag 2.1713 -2.2781 -4.0934 0
M  V30 49 Ag -0.7339 1.3029 4.9973 0
M  V30 50 Fe -2.2485 -0.5059 4.7548 0
M  V30 51 Ag -3.8374 -2.1785 4.2056 0
M  V30 52 Ag -3.9103 2.9240 -4.2343 0
M  V30 53 Fe -1.9052 1.7036 -4.5572 0
M  V30 54 Ag 0.0716 0.4197 -4.7986 0
M  V30 55 Ag -4.7331 4.3414 -2.3034 0
M  V30 56 Fe -4.5306 5.0687 -0.0506 0
M  V30 57 Ag -4.4816 5.5027 2.2846 0
M  V30 58 Ag -6.5636 3.0125 -2.0093 0
M  V30 59 Fe -6.6180 3.5660 0.2961 0
M  V30 60 Ag -6.3166 4.1750 2.5683 0
M  V30 61 Ag 7.8361 -3.4247 -2.4401 0
M  V30 62 Fe 7.1987 -1.1434 -2.4792 0
M  V30 63 Ag 6.3167 1.0431 -2.2408 0
M  V30 64 Ag 0.7433 3.5635 2.8255 0
M  V30 65 Fe 2.3434 3.3826 1.0777 0
M  V30 66 Ag 3.9595 3.0726 -0.6372 0
M  V30 67 Ag 0.7383 1.2135 3.2501 0
M  V30 68 Fe 2.6212 -0.1292 2.7181 0
M  V30 69 Ag 4.4574 -1.5196 2.1470 0
M  V30 70 Ag -5.7101 3.3762 4.6851 0
M  V30 71 Fe -5.8892 1.0185 4.4872 0
M  V30 72 Ag -5.8577 -1.3033 3.9981 0
M  V30 73 Ba 2.3515 0.3562 -4.4553 0
M  V30 74 Ga 3.3247 1.1531 -3.6780 0
M  V30 75 Ba 4.3158 2.0056 -2.9867 0
M  V30 76 Ba -3.5086 -3.2285 -1.0061 0
M  V30 77 Ga -3.7349 -3.3077 0.4522 0
M  V30 78 Ba -3.9815 -3.3652 1.9082 0
M  V30 79 Ba 6.4741 -5.4633 -0.0792 0
M  V30 80 Ga 6.0814 -4.6295 1.0721 0
M  V30 81 Ba 5.7691 -3.6443 2.1247 0
M  V30 82 Ba 8.5156 -4.2711 -0.2734 0
M  V30 83 Ga 8.2565 -3.3704 0.8633 0
M  V30 84 Ba 7.8051 -2.4647 1.9341 0
M  V30 85 Ba -5.6501 -2.1178 -1.2595 0
M  V30 86 Ga -5.9206 -2.2124 0.1881 0
M  V30 87 Ba -6.1593 -2.3092 1.6411 0
M  V30 88 Ba -5.0967 -1.3512 -3.5070 0
M  V30 89 Ga -5.4463 0.0648 -3.7503 0
M  V30 90 Ba -5.7997 1.4787 -4.0009 0
M  V30 91 Ba -0.9043 3.8732 4.8249 0
M  V30 92 Ga -2.2740 4.4249 4.7443 0
M  V30 93 Ba -3.6426 4.9800 4.6672 0
M  V30 94 Ba 6.0081 1.9289 0.0787 0
M  V30 95 Ga 6.2859 0.8465 1.0476 0
M  V30 96 Ba 6.5679 -0.2307 2.0210 0
M  V30 97 Ba -2.9088 -2.6720 -3.3671 0
M  V30 98 Ga -1.5565 -2.2919 -3.8384 0
M  V30 99 Ba -0.2092 -2.0371 -4.4000 0
M  V30 END ATOM
M  V30 BEGIN BOND
M  V30 1 1 1 2
M  V30 2 1 1 3
M  V30 3 1 1 4
M  V30 4 1 1 5
M  V30 5 1 6 7
M  V30 6 1 6 8
M  V30 7 1 6 9
M  V30 8 1 6 10
M  V30 9 1 11 12
M  V30 10 1 11 13
M  V30 11 1 11 14
M  V30 12 1 11 15
M  V30 13 1 16 17
M  V30 14 1 16 18
M  V30 15 1 16 19
M  V30 16 1 16 20
M  V30 17 1 21 22
M  V30 18 1 21 23
M  V30 19 1 21 24
M  V30 20 1 21 25
M  V30 21 1 26 27
M  V30 22 1 26 28
M  V30 23 1 26 29
M  V30 24 1 26 30
M  V30 25 1 31 32
M  V30 26 1 31 33
M  V30 27 1 31 34
M  V30 28 1 31 35
M  V30 29 1 36 37
M  V30 30 1 36 38
M  V30 31 1 36 39
M  V30 32 1 36 40
M  V30 33 1 41 42
M  V30 34 1 41 43
M  V30 35 1 41 44
M  V30 36 1 41 45
M  V30 37 1 46 47
M  V30 38 1 47 48
M  V30 39 1 49 50
M  V30 40 1 50 51
M  V30 41 1 52 53
M  V30 42 1 53 54
M  V30 43 1 55 56
M  V30 44 1 56 57
M  V30 45 1 58 59
M  V30 46 1 59 60
M  V30 47 1 61 62
M  V30 48 1 62 63
M  V30 49 1 64 65
M  V30 50 1 65 66
M  V30 51 1 67 68
M  V30 52 1 68 69
M  V30 53 1 70 71
M  V30 54 1 71 72
M  V30 55 1 73 74
M  V30 56 1 74 75
M  V30 57 1 76 77
M  V30 58 1 77 78
M  V30 59 1 79 80
M  V30 60 1 80 81
M  V30 61 1 82 83
M  V30 62 1 83 84
M  V30 63 1 85 86
M  V30 64 1 86 87
M  V30 65 1 88 89
M  V30 66 1 89 90
M  V30 67 1 91 92
M  V30 68 1 92 93
M  V30 69 1 94 95
M  V30 70 1 95 96
M  V30 71 1 97 98
M  V30 72 1 98 99
M  V30 73 1 2 49
M  V30 74 1 3 67
M  V30 75 1 4 91
M  V30 76 1 5 64
M  V30 77 1 7 46
M  V30 78 1 8 82
M  V30 79 1 9 61
M  V30 80 1 10 79
M  V30 81 1 12 85
M  V30 82 1 13 97
M  V30 83 1 14 88
M  V30 84 1 15 76
M  V30 85 1 17 90
M  V30 86 1 18 55
M  V30 87 1 19 52
M  V30 88 1 20 58
M  V30 89 1 22 48
M  V30 90 1 23 99
M  V30 91 1 24 54
M  V30 92 1 25 73
M  V30 93 1 27 57
M  V30 94 1 28 70
M  V30 95 1 29 93
M  V30 96 1 30 60
M  V30 97 1 32 51
M  V30 98 1 33 72
M  V30 99 1 34 78
M  V30 100 1 35 87
M  V30 101 1 37 75
M  V30 102 1 38 94
M  V30 103 1 39 63
M  V30 104 1 40 66
M  V30 105 1 42 84
M  V30 106 1 43 69
M  V30 107 1 44 96
M  V30 108 1 45 81
M  V30 END BOND
M  V30 END CTAB
M  END

$$$$
