
     RDKit          3D

  0  0  0  0  0  0  0  0  0  0999 V3000
M  V30 BEGIN CTAB
M  V30 COUNTS 99 108 0 0 0
M  V30 BEGIN ATOM
M  V30 1 Pd 4.4610 -0.1458 -0.6779 0
M  V30 2 Pb 4.3968 -1.0200 -1.1001 0
M  V30 3 Pb 4.3972 0.4488 -1.5420 0
M  V30 4 Pb 4.4375 -0.6861 0.1660 0
M  V30 5 Pb 4.7630 0.6560 -0.2038 0
M  V30 6 Pd -2.8315 6.2262 -4.6137 0
M  V30 7 Pb -3.2203 5.5498 -3.8987 0
M  V30 8 Pb -2.3580 6.8755 -5.1822 0
M  V30 9 Pb -3.2331 7.0766 -4.2663 0
M  V30 10 Pb -2.2875 5.5460 -5.1218 0
M  V30 11 Pd -4.4846 -4.4914 0.4682 0
M  V30 12 Pb -3.9294 -4.5229 -0.3372 0
M  V30 13 Pb -4.6081 -3.4876 0.3397 0
M  V30 14 Pb -5.1308 -4.5853 1.2015 0
M  V30 15 Pb -4.2493 -5.4606 0.6270 0
M  V30 16 Pd -2.8914 -3.0220 6.5057 0
M  V30 17 Pb -3.6855 -3.5974 6.3996 0
M  V30 18 Pb -2.3390 -3.7665 6.8855 0
M  V30 19 Pb -3.3384 -2.2896 5.9533 0
M  V30 20 Pb -2.1435 -2.4107 6.7006 0
M  V30 21 Pd -3.4324 1.6434 -0.0144 0
M  V30 22 Pb -3.5805 2.2013 -0.8901 0
M  V30 23 Pb -3.8986 0.7760 -0.1752 0
M  V30 24 Pb -3.4585 1.2700 0.9218 0
M  V30 25 Pb -3.1229 2.4935 0.2969 0
M  V30 26 Pd 3.5220 -3.6673 4.5034 0
M  V30 27 Pb 3.0190 -4.2525 5.1555 0
M  V30 28 Pb 4.0446 -4.4638 4.2407 0
M  V30 29 Pb 3.8859 -3.1033 3.7551 0
M  V30 30 Pb 3.0676 -2.9002 4.8930 0
M  V30 31 Pd 1.5939 -7.3507 -0.5038 0
M  V30 32 Pb 2.3316 -6.7295 -0.7997 0
M  V30 33 Pb 2.2375 -7.7291 0.1316 0
M  V30 34 Pb 0.8220 -7.8742 -0.1508 0
M  V30 35 Pb 0.9889 -6.9844 -1.2056 0
M  V30 36 Pd 0.5297 5.6791 -1.0117 0
M  V30 37 Pb -0.2620 5.2062 -0.6493 0
M  V30 38 Pb 1.3046 6.1862 -1.3033 0
M  V30 39 Pb 0.0468 6.5329 -0.9596 0
M  V30 40 Pb 1.1050 4.9139 -0.8538 0
M  V30 41 Pd 3.4842 4.8636 -4.8142 0
M  V30 42 Pb 3.0370 5.6492 -5.2349 0
M  V30 43 Pb 3.8558 3.9740 -4.3434 0
M  V30 44 Pb 3.7283 5.5336 -4.0964 0
M  V30 45 Pb 3.1170 4.3578 -5.5892 0
M  V30 46 Ag 4.4335 -1.7433 -1.3021 0
M  V30 47 Fe 3.6986 -3.9840 -1.0092 0
M  V30 48 Ag 2.8390 -6.2179 -1.0470 0
M  V30 49 Ag -3.6024 -1.7239 5.5102 0
M  V30 50 Fe -3.5181 -0.4476 3.4842 0
M  V30 51 Ag -3.6374 1.0104 1.6094 0
M  V30 52 Ag -1.8397 -4.2872 7.0765 0
M  V30 53 Fe 0.4035 -4.7400 6.5151 0
M  V30 54 Ag 2.5772 -4.6592 5.5971 0
M  V30 55 Ag -3.9885 -6.1556 0.7461 0
M  V30 56 Fe -2.0097 -7.4239 0.5098 0
M  V30 57 Ag 0.1915 -8.1697 0.1010 0
M  V30 58 Ag -1.8394 5.1447 -5.5816 0
M  V30 59 Fe 0.3590 4.6956 -6.3672 0
M  V30 60 Ag 2.6372 4.1182 -6.1065 0
M  V30 61 Ag -1.8632 7.3083 -5.5232 0
M  V30 62 Fe 0.4900 7.1793 -5.7141 0
M  V30 63 Ag 2.6578 6.2359 -5.5277 0
M  V30 64 Ag -3.5407 -4.6794 -0.9264 0
M  V30 65 Fe -1.7718 -6.0965 -1.5346 0
M  V30 66 Ag 0.4855 -6.7248 -1.6875 0
M  V30 67 Ag -1.5517 -1.9932 6.8394 0
M  V30 68 Fe 0.7616 -2.2747 6.5871 0
M  V30 69 Ag 2.7060 -2.4130 5.2828 0
M  V30 70 Ag -5.5259 -4.7406 1.8045 0
M  V30 71 Fe -5.1660 -4.6349 4.1386 0
M  V30 72 Ag -4.2935 -3.9655 6.2150 0
M  V30 73 Ag -3.2768 7.7697 -3.9781 0
M  V30 74 Fe -1.6148 8.3954 -2.4405 0
M  V30 75 Ag -0.2744 7.1915 -0.9500 0
M  V30 76 Ag 4.8647 1.3079 0.0730 0
M  V30 77 Fe 3.6492 3.2199 -0.5444 0
M  V30 78 Ag 1.6307 4.4097 -0.7242 0
M  V30 79 Ag 4.3304 -5.1051 4.0188 0
M  V30 80 Fe 3.7411 -6.7247 2.4037 0
M  V30 81 Ag 2.7807 -7.8755 0.5984 0
M  V30 82 Ba -3.5967 5.0253 -3.4196 0
M  V30 83 Ga -3.5201 3.9243 -2.3676 0
M  V30 84 Ba -3.8153 2.7799 -1.4025 0
M  V30 85 Ba -2.9475 3.1576 0.5010 0
M  V30 86 Ga -1.9099 4.0253 0.0000 0
M  V30 87 Ba -0.8526 4.9924 -0.2661 0
M  V30 88 Ba 4.6047 -1.1076 0.7830 0
M  V30 89 Ga 4.2677 -1.9246 1.9802 0
M  V30 90 Ba 4.3213 -2.7629 3.2166 0
M  V30 91 Ba 1.9108 6.5840 -1.4626 0
M  V30 92 Ga 2.8929 6.5257 -2.5381 0
M  V30 93 Ba 3.8211 6.1034 -3.5950 0
M  V30 94 Ba 4.4464 0.8766 -2.2148 0
M  V30 95 Ga 4.2196 2.1697 -2.9950 0
M  V30 96 Ba 4.0774 3.2333 -4.0924 0
M  V30 97 Ba -4.8078 -2.7541 0.2095 0
M  V30 98 Ga -4.3899 -1.3221 0.0764 0
M  V30 99 Ba -4.3370 0.1492 -0.1653 0
M  V30 END ATOM
M  V30 BEGIN BOND
M  V30 1 1 1 2
M  V30 2 1 1 3
M  V30 3 1 1 4
M  V30 4 1 1 5
M  V30 5 1 6 7
M  V30 6 1 6 8
M  V30 7 1 6 9
M  V30 8 1 6 10
M  V30 9 1 11 12
M  V30 10 1 11 13
M  V30 11 1 11 14
M  V30 12 1 11 15
M  V30 13 1 16 17
M  V30 14 1 16 18
M  V30 15 1 16 19
M  V30 16 1 16 20
M  V30 17 1 21 22
M  V30 18 1 21 23
M  V30 19 1 21 24
M  V30 20 1 21 25
M  V30 21 1 26 27
M  V30 22 1 26 28
M  V30 23 1 26 29
M  V30 24 1 26 30
M  V30 25 1 31 32
M  V30 26 1 31 33
M  V30 27 1 31 34
M  V30 28 1 31 35
M  V30 29 1 36 37
M  V30 30 1 36 38
M  V30 31 1 36 39
M  V30 32 1 36 40
M  V30 33 1 41 42
M  V30 34 1 41 43
M  V30 35 1 41 44
M  V30 36 1 41 45
M  V30 37 1 46 47
M  V30 38 1 47 48
M  V30 39 1 49 50
M  V30 40 1 50 51
M  V30 41 1 52 53
M  V30 42 1 53 54
M  V30 43 1 55 56
M  V30 44 1 56 57
M  V30 45 1 58 59
M  V30 46 1 59 60
M  V30 47 1 61 62
M  V30 48 1 62 63
M  V30 49 1 64 65
M  V30 50 1 65 66
M  V30 51 1 67 68
M  V30 52 1 68 69
M  V30 53 1 70 71
M  V30 54 1 71 72
M  V30 55 1 73 74
M  V30 56 1 74 75
M  V30 57 1 76 77
M  V30 58 1 77 78
M  V30 59 1 79 80
M  V30 60 1 80 81
M  V30 61 1 82 83
M  V30 62 1 83 84
M  V30 63 1 85 86
M  V30 64 1 86 87
M  V30 65 1 88 89
M  V30 66 1 89 90
M  V30 67 1 91 92
M  V30 68 1 92 93
M  V30 69 1 94 95
M  V30 70 1 95 96
M  V30 71 1 97 98
M  V30 72 1 98 99
M  V30 73 1 2 46
M  V30 74 1 3 94
M  V30 75 1 4 88
M  V30 76 1 5 76
M  V30 77 1 7 82
M  V30 78 1 8 61
M  V30 79 1 9 73
M  V30 80 1 10 58
M  V30 81 1 12 64
M  V30 82 1 13 97
M  V30 83 1 14 70
M  V30 84 1 15 55
M  V30 85 1 17 72
M  V30 86 1 18 52
M  V30 87 1 19 49
M  V30 88 1 20 67
M  V30 89 1 22 84
M  V30 90 1 23 99
M  V30 91 1 24 51
M  V30 92 1 25 85
M  V30 93 1 27 54
M  V30 94 1 28 79
M  V30 95 1 29 90
M  V30 96 1 30 69
M  V30 97 1 32 48
M  V30 98 1 33 81
M  V30 99 1 34 57
M  V30 100 1 35 66
M  V30 101 1 37 87
M  V30 102 1 38 91
M  V30 103 1 39 75
M  V30 104 1 40 78
M  V30 105 1 42 63
M  V30 106 1 43 96
M  V30 107 1 44 93
M  V30 108 1 45 60
M  V30 END BOND
M  V30 END CTAB
M  END

$$$$
