
     RDKit          3D

  0  0  0  0  0  0  0  0  0  0999 V3000
M  V30 BEGIN CTAB
M  V30 COUNTS 99 108 0 0 0
M  V30 BEGIN ATOM
M  V30 1 Pd 2.1878 -5.3131 4.6821 0
M  V30 2 Pb 2.5898 -5.8246 3.9199 0
M  V30 3 Pb 1.3697 -5.8737 4.6055 0
M  V30 4 Pb 1.7353 -4.7368 5.3605 0
M  V30 5 Pb 2.9610 -4.6827 4.7302 0
M  V30 6 Pd -2.8325 1.3733 -3.9241 0
M  V30 7 Pb -1.9378 1.7756 -4.1079 0
M  V30 8 Pb -3.7408 0.9795 -3.8212 0
M  V30 9 Pb -2.6053 0.6087 -4.5400 0
M  V30 10 Pb -3.0470 2.0479 -3.1982 0
M  V30 11 Pd 3.8388 3.8728 -1.4981 0
M  V30 12 Pb 4.1344 2.9133 -1.4706 0
M  V30 13 Pb 3.4373 4.7887 -1.5224 0
M  V30 14 Pb 3.4185 3.7086 -2.3830 0
M  V30 15 Pb 4.1690 4.0360 -0.5720 0
M  V30 16 Pd -1.0708 4.5886 -2.0688 0
M  V30 17 Pb -0.4707 4.1006 -2.6869 0
M  V30 18 Pb -0.3869 5.3184 -2.0018 0
M  V30 19 Pb -1.6887 5.1244 -1.4927 0
M  V30 20 Pb -1.7059 3.7995 -2.1021 0
M  V30 21 Pd -2.9207 -1.1677 -0.6772 0
M  V30 22 Pb -2.0860 -1.0161 -0.1585 0
M  V30 23 Pb -3.7896 -1.2877 -1.1451 0
M  V30 24 Pb -2.9961 -2.1202 -0.3773 0
M  V30 25 Pb -2.8879 -0.2275 -1.0654 0
M  V30 26 Pd 1.0596 -2.2795 -3.9794 0
M  V30 27 Pb 1.1961 -1.3398 -4.2544 0
M  V30 28 Pb 1.8855 -2.1692 -3.4236 0
M  V30 29 Pb 0.2123 -2.2646 -4.5176 0
M  V30 30 Pb 0.9451 -3.2416 -3.7254 0
M  V30 31 Pd 2.0981 1.7830 5.4345 0
M  V30 32 Pb 1.5761 1.0777 5.9109 0
M  V30 33 Pb 1.3065 2.3960 5.4207 0
M  V30 34 Pb 2.6563 2.4460 4.9406 0
M  V30 35 Pb 2.8507 1.1261 5.3911 0
M  V30 36 Pd -2.0189 3.1468 1.8306 0
M  V30 37 Pb -2.4027 3.0810 0.8917 0
M  V30 38 Pb -2.4779 4.0267 1.8422 0
M  V30 39 Pb -1.5009 2.2951 1.7709 0
M  V30 40 Pb -1.6751 3.2970 2.7630 0
M  V30 41 Pd -0.1611 -6.0774 0.2996 0
M  V30 42 Pb 0.0896 -5.9082 -0.6566 0
M  V30 43 Pb -1.0813 -5.7137 0.1606 0
M  V30 44 Pb 0.7657 -6.3972 0.5097 0
M  V30 45 Pb -0.4350 -6.3378 1.2233 0
M  V30 46 Ag 4.2791 2.1727 -1.4739 0
M  V30 47 Fe 3.4917 0.0445 -2.1910 0
M  V30 48 Ag 2.4835 -1.9422 -3.0272 0
M  V30 49 Ag 1.4061 -4.2292 5.8012 0
M  V30 50 Fe 1.2230 -1.8890 6.1481 0
M  V30 51 Ag 1.2597 0.4820 6.2350 0
M  V30 52 Ag -0.0451 3.7202 -3.1578 0
M  V30 53 Fe 0.6646 1.5792 -3.8673 0
M  V30 54 Ag 1.2894 -0.6280 -4.4265 0
M  V30 55 Ag 4.3380 4.1570 0.1452 0
M  V30 56 Fe 3.7875 3.5871 2.3802 0
M  V30 57 Ag 3.1024 2.8944 4.5423 0
M  V30 58 Ag -1.2677 2.0500 -4.2970 0
M  V30 59 Fe 0.8881 2.8570 -3.7290 0
M  V30 60 Ag 3.0186 3.5887 -2.9977 0
M  V30 61 Ag 3.4603 -4.1282 4.7913 0
M  V30 62 Fe 3.5766 -1.7730 5.0643 0
M  V30 63 Ag 3.3559 0.5751 5.3351 0
M  V30 64 Ba -3.1328 -2.8436 -0.2243 0
M  V30 65 Ga -2.4151 -4.1219 -0.0529 0
M  V30 66 Ba -1.7787 -5.4408 0.1324 0
M  V30 67 Ba 2.8322 -6.1892 3.3080 0
M  V30 68 Ga 2.1805 -6.4272 2.0016 0
M  V30 69 Ba 1.4520 -6.6167 0.7282 0
M  V30 70 Ba 0.6973 2.8357 5.4000 0
M  V30 71 Ga -0.3622 3.1282 4.4097 0
M  V30 72 Ba -1.4501 3.4621 3.4645 0
M  V30 73 Ba 0.7386 -6.2502 4.4873 0
M  V30 74 Ga 0.0134 -6.4407 3.2240 0
M  V30 75 Ba -0.6280 -6.5685 1.9084 0
M  V30 76 Ba -1.4969 -0.8428 0.2617 0
M  V30 77 Ga -1.2465 0.3968 1.0100 0
M  V30 78 Ba -1.0880 1.6722 1.7228 0
M  V30 79 Ba -3.2525 2.5256 -2.6378 0
M  V30 80 Ga -2.9657 2.7970 -1.1953 0
M  V30 81 Ba -2.7678 3.1935 0.2267 0
M  V30 82 Ba -2.1302 5.5266 -1.0388 0
M  V30 83 Ga -2.5366 5.2367 0.3399 0
M  V30 84 Ba -2.7752 4.6844 1.6755 0
M  V30 85 Ba 3.0637 5.4386 -1.5624 0
M  V30 86 Ga 1.6193 5.6884 -1.7473 0
M  V30 87 Ba 0.1606 5.8302 -1.9347 0
M  V30 88 Ba -4.3845 0.6215 -3.7165 0
M  V30 89 Ga -4.5804 -0.3749 -2.6696 0
M  V30 90 Ba -4.4201 -1.2780 -1.5361 0
M  V30 91 Ba -2.1913 3.2145 -2.1686 0
M  V30 92 Ga -2.4553 1.8030 -1.7428 0
M  V30 93 Ba -2.9774 0.4392 -1.4334 0
M  V30 94 Ba -2.4594 -0.0085 -4.9552 0
M  V30 95 Ga -1.4382 -1.0859 -4.9474 0
M  V30 96 Ba -0.4101 -2.1566 -4.9310 0
M  V30 97 Ba 0.8762 -3.9747 -3.5755 0
M  V30 98 Ga 0.5646 -4.8646 -2.4377 0
M  V30 99 Ba 0.2695 -5.8596 -1.3860 0
M  V30 END ATOM
M  V30 BEGIN BOND
M  V30 1 1 1 2
M  V30 2 1 1 3
M  V30 3 1 1 4
M  V30 4 1 1 5
M  V30 5 1 6 7
M  V30 6 1 6 8
M  V30 7 1 6 9
M  V30 8 1 6 10
M  V30 9 1 11 12
M  V30 10 1 11 13
M  V30 11 1 11 14
M  V30 12 1 11 15
M  V30 13 1 16 17
M  V30 14 1 16 18
M  V30 15 1 16 19
M  V30 16 1 16 20
M  V30 17 1 21 22
M  V30 18 1 21 23
M  V30 19 1 21 24
M  V30 20 1 21 25
M  V30 21 1 26 27
M  V30 22 1 26 28
M  V30 23 1 26 29
M  V30 24 1 26 30
M  V30 25 1 31 32
M  V30 26 1 31 33
M  V30 27 1 31 34
M  V30 28 1 31 35
M  V30 29 1 36 37
M  V30 30 1 36 38
M  V30 31 1 36 39
M  V30 32 1 36 40
M  V30 33 1 41 42
M  V30 34 1 41 43
M  V30 35 1 41 44
M  V30 36 1 41 45
M  V30 37 1 46 47
M  V30 38 1 47 48
M  V30 39 1 49 50
M  V30 40 1 50 51
M  V30 41 1 52 53
M  V30 42 1 53 54
M  V30 43 1 55 56
M  V30 44 1 56 57
M  V30 45 1 58 59
M  V30 46 1 59 60
M  V30 47 1 61 62
M  V30 48 1 62 63
M  V30 49 1 64 65
M  V30 50 1 65 66
M  V30 51 1 67 68
M  V30 52 1 68 69
M  V30 53 1 70 71
M  V30 54 1 71 72
M  V30 55 1 73 74
M  V30 56 1 74 75
M  V30 57 1 76 77
M  V30 58 1 77 78
M  V30 59 1 79 80
M  V30 60 1 80 81
M  V30 61 1 82 83
M  V30 62 1 83 84
M  V30 63 1 85 86
M  V30 64 1 86 87
M  V30 65 1 88 89
M  V30 66 1 89 90
M  V30 67 1 91 92
M  V30 68 1 92 93
M  V30 69 1 94 95
M  V30 70 1 95 96
M  V30 71 1 97 98
M  V30 72 1 98 99
M  V30 73 1 2 67
M  V30 74 1 3 73
M  V30 75 1 4 49
M  V30 76 1 5 61
M  V30 77 1 7 58
M  V30 78 1 8 88
M  V30 79 1 9 94
M  V30 80 1 10 79
M  V30 81 1 12 46
M  V30 82 1 13 85
M  V30 83 1 14 60
M  V30 84 1 15 55
M  V30 85 1 17 52
M  V30 86 1 18 87
M  V30 87 1 19 82
M  V30 88 1 20 91
M  V30 89 1 22 76
M  V30 90 1 23 90
M  V30 91 1 24 64
M  V30 92 1 25 93
M  V30 93 1 27 54
M  V30 94 1 28 48
M  V30 95 1 29 96
M  V30 96 1 30 97
M  V30 97 1 32 51
M  V30 98 1 33 70
M  V30 99 1 34 57
M  V30 100 1 35 63
M  V30 101 1 37 81
M  V30 102 1 38 84
M  V30 103 1 39 78
M  V30 104 1 40 72
M  V30 105 1 42 99
M  V30 106 1 43 66
M  V30 107 1 44 69
M  V30 108 1 45 75
M  V30 END BOND
M  V30 END CTAB
M  END

$$$$
