
     RDKit          3D

  0  0  0  0  0  0  0  0  0  0999 V3000
M  V30 BEGIN CTAB
M  V30 COUNTS 99 108 0 0 0
M  V30 BEGIN ATOM
M  V30 1 Pd -1.9521 3.0251 4.8241 0
M  V30 2 Pb -2.7686 2.4683 4.6715 0
M  V30 3 Pb -1.1310 3.5806 4.9804 0
M  V30 4 Pb -2.3060 3.6960 4.1730 0
M  V30 5 Pb -1.5994 2.3234 5.4352 0
M  V30 6 Pd 5.4176 0.7546 0.6436 0
M  V30 7 Pb 4.4947 0.5810 0.2989 0
M  V30 8 Pb 6.3514 0.9332 0.9373 0
M  V30 9 Pb 5.6080 -0.2087 0.8235 0
M  V30 10 Pb 5.1797 1.7355 0.7501 0
M  V30 11 Pd -2.0714 -4.9145 -4.4386 0
M  V30 12 Pb -2.3127 -4.9780 -3.4698 0
M  V30 13 Pb -1.1881 -5.3592 -4.2855 0
M  V30 14 Pb -1.8329 -4.7753 -5.3984 0
M  V30 15 Pb -2.9354 -4.4287 -4.5684 0
M  V30 16 Pd -0.4097 -0.5464 -6.4198 0
M  V30 17 Pb -0.5674 -1.4085 -6.9014 0
M  V30 18 Pb -1.3805 -0.3128 -6.4648 0
M  V30 19 Pb 0.5529 -0.7872 -6.3036 0
M  V30 20 Pb -0.2799 0.3071 -5.9151 0
M  V30 21 Pd 2.1924 -2.9251 -2.3471 0
M  V30 22 Pb 2.2218 -2.0107 -1.9419 0
M  V30 23 Pb 2.0865 -3.8386 -2.7394 0
M  V30 24 Pb 2.4345 -2.5586 -3.2476 0
M  V30 25 Pb 1.9870 -3.2851 -1.4388 0
M  V30 26 Pd -4.6831 3.5445 -2.2099 0
M  V30 27 Pb -4.8381 2.9903 -3.0277 0
M  V30 28 Pb -5.6106 3.3569 -1.8877 0
M  V30 29 Pb -4.4898 4.0738 -1.3834 0
M  V30 30 Pb -3.7406 3.6538 -2.5241 0
M  V30 31 Pd -6.3280 -0.8514 -0.1621 0
M  V30 32 Pb -6.2180 -0.5761 0.7924 0
M  V30 33 Pb -6.8568 -0.0204 -0.3392 0
M  V30 34 Pb -6.3869 -1.1264 -1.1210 0
M  V30 35 Pb -5.7640 -1.6658 -0.0179 0
M  V30 36 Pd 3.7173 -1.6026 4.9043 0
M  V30 37 Pb 3.2154 -2.2203 4.3005 0
M  V30 38 Pb 4.1556 -0.9543 5.5379 0
M  V30 39 Pb 4.5023 -1.7592 4.2946 0
M  V30 40 Pb 2.9038 -1.4562 5.4581 0
M  V30 41 Pd 4.0562 3.5325 5.0674 0
M  V30 42 Pb 5.0435 3.4272 5.0852 0
M  V30 43 Pb 3.0880 3.8015 5.1335 0
M  V30 44 Pb 4.0610 2.9898 5.9049 0
M  V30 45 Pb 4.1148 3.8415 4.1028 0
M  V30 46 Ag -3.3798 2.0505 4.5518 0
M  V30 47 Fe -4.7637 0.8405 3.0486 0
M  V30 48 Ag -6.1100 -0.3551 1.5003 0
M  V30 49 Ag 1.8642 -3.5194 -0.7386 0
M  V30 50 Fe 2.3134 -3.1512 1.5626 0
M  V30 51 Ag 2.8476 -2.6653 3.8234 0
M  V30 52 Ag -2.0958 -0.0938 -6.4168 0
M  V30 53 Fe -3.5948 1.2054 -5.1114 0
M  V30 54 Ag -4.8752 2.5635 -3.6433 0
M  V30 55 Ag -3.5757 -4.0397 -4.5941 0
M  V30 56 Fe -5.0523 -2.6909 -3.3145 0
M  V30 57 Ag -6.3562 -1.3797 -1.8254 0
M  V30 58 Ag 6.9683 1.1234 1.2955 0
M  V30 59 Fe 7.0329 2.2918 3.3274 0
M  V30 60 Ag 5.7731 3.3291 5.0133 0
M  V30 61 Ag -2.5468 -4.9436 -2.7575 0
M  V30 62 Fe -3.9073 -3.6877 -1.2685 0
M  V30 63 Ag -5.3237 -2.2736 0.0122 0
M  V30 64 Ag -0.2601 0.9459 -5.5226 0
M  V30 65 Fe -1.5467 2.3880 -4.1428 0
M  V30 66 Ag -3.0422 3.6484 -2.7963 0
M  V30 67 Ag -2.5879 4.1593 3.6553 0
M  V30 68 Fe -3.4649 4.3668 1.4580 0
M  V30 69 Ag -4.3241 4.4479 -0.7546 0
M  V30 70 Ag -1.3140 1.7690 5.8424 0
M  V30 71 Fe 0.4450 0.1882 5.9648 0
M  V30 72 Ag 2.2977 -1.2827 5.8544 0
M  V30 73 Ba 3.8032 0.5127 0.0153 0
M  V30 74 Ga 3.0293 -0.4436 -0.7998 0
M  V30 75 Ba 2.1805 -1.3384 -1.6103 0
M  V30 76 Ba 1.2664 -0.9814 -6.1836 0
M  V30 77 Ga 1.9555 -1.6349 -5.0541 0
M  V30 78 Ba 2.6363 -2.2889 -3.9198 0
M  V30 79 Ba 4.9787 2.4583 0.9084 0
M  V30 80 Ga 4.5874 3.2209 2.1370 0
M  V30 81 Ba 4.1944 3.9970 3.3565 0
M  V30 82 Ba -1.6451 -4.6174 -6.1057 0
M  V30 83 Ga -1.1654 -3.3633 -6.7136 0
M  V30 84 Ba -0.6914 -2.0687 -7.2348 0
M  V30 85 Ba 5.7918 -0.8728 1.1212 0
M  V30 86 Ga 5.4124 -1.4427 2.4355 0
M  V30 87 Ba 5.0029 -1.9598 3.7627 0
M  V30 88 Ba 4.3429 -0.4680 6.0892 0
M  V30 89 Ga 4.2733 0.9998 6.2925 0
M  V30 90 Ba 4.1952 2.4742 6.4341 0
M  V30 91 Ba -0.5373 4.0247 5.1133 0
M  V30 92 Ga 0.9434 3.9810 5.1350 0
M  V30 93 Ba 2.4141 4.1378 5.2117 0
M  V30 94 Ba -6.2915 3.1653 -1.6390 0
M  V30 95 Ga -6.7954 1.9080 -1.0544 0
M  V30 96 Ba -7.2244 0.6193 -0.4781 0
M  V30 97 Ba -0.5092 -5.6601 -4.1757 0
M  V30 98 Ga 0.7413 -5.1217 -3.6070 0
M  V30 99 Ba 1.9563 -4.5190 -3.0263 0
M  V30 END ATOM
M  V30 BEGIN BOND
M  V30 1 1 1 2
M  V30 2 1 1 3
M  V30 3 1 1 4
M  V30 4 1 1 5
M  V30 5 1 6 7
M  V30 6 1 6 8
M  V30 7 1 6 9
M  V30 8 1 6 10
M  V30 9 1 11 12
M  V30 10 1 11 13
M  V30 11 1 11 14
M  V30 12 1 11 15
M  V30 13 1 16 17
M  V30 14 1 16 18
M  V30 15 1 16 19
M  V30 16 1 16 20
M  V30 17 1 21 22
M  V30 18 1 21 23
M  V30 19 1 21 24
M  V30 20 1 21 25
M  V30 21 1 26 27
M  V30 22 1 26 28
M  V30 23 1 26 29
M  V30 24 1 26 30
M  V30 25 1 31 32
M  V30 26 1 31 33
M  V30 27 1 31 34
M  V30 28 1 31 35
M  V30 29 1 36 37
M  V30 30 1 36 38
M  V30 31 1 36 39
M  V30 32 1 36 40
M  V30 33 1 41 42
M  V30 34 1 41 43
M  V30 35 1 41 44
M  V30 36 1 41 45
M  V30 37 1 46 47
M  V30 38 1 47 48
M  V30 39 1 49 50
M  V30 40 1 50 51
M  V30 41 1 52 53
M  V30 42 1 53 54
M  V30 43 1 55 56
M  V30 44 1 56 57
M  V30 45 1 58 59
M  V30 46 1 59 60
M  V30 47 1 61 62
M  V30 48 1 62 63
M  V30 49 1 64 65
M  V30 50 1 65 66
M  V30 51 1 67 68
M  V30 52 1 68 69
M  V30 53 1 70 71
M  V30 54 1 71 72
M  V30 55 1 73 74
M  V30 56 1 74 75
M  V30 57 1 76 77
M  V30 58 1 77 78
M  V30 59 1 79 80
M  V30 60 1 80 81
M  V30 61 1 82 83
M  V30 62 1 83 84
M  V30 63 1 85 86
M  V30 64 1 86 87
M  V30 65 1 88 89
M  V30 66 1 89 90
M  V30 67 1 91 92
M  V30 68 1 92 93
M  V30 69 1 94 95
M  V30 70 1 95 96
M  V30 71 1 97 98
M  V30 72 1 98 99
M  V30 73 1 2 46
M  V30 74 1 3 91
M  V30 75 1 4 67
M  V30 76 1 5 70
M  V30 77 1 7 73
M  V30 78 1 8 58
M  V30 79 1 9 85
M  V30 80 1 10 79
M  V30 81 1 12 61
M  V30 82 1 13 97
M  V30 83 1 14 82
M  V30 84 1 15 55
M  V30 85 1 17 84
M  V30 86 1 18 52
M  V30 87 1 19 76
M  V30 88 1 20 64
M  V30 89 1 22 75
M  V30 90 1 23 99
M  V30 91 1 24 78
M  V30 92 1 25 49
M  V30 93 1 27 54
M  V30 94 1 28 94
M  V30 95 1 29 69
M  V30 96 1 30 66
M  V30 97 1 32 48
M  V30 98 1 33 96
M  V30 99 1 34 57
M  V30 100 1 35 63
M  V30 101 1 37 51
M  V30 102 1 38 88
M  V30 103 1 39 87
M  V30 104 1 40 72
M  V30 105 1 42 60
M  V30 106 1 43 93
M  V30 107 1 44 90
M  V30 108 1 45 81
M  V30 END BOND
M  V30 END CTAB
M  END

$$$$
