
     RDKit          3D

  0  0  0  0  0  0  0  0  0  0999 V3000
M  V30 BEGIN CTAB
M  V30 COUNTS 99 108 0 0 0
M  V30 BEGIN ATOM
M  V30 1 Pd -2.6759 2.6885 2.7030 0
M  V30 2 Pb -2.9634 2.5356 1.7581 0
M  V30 3 Pb -2.5135 3.6226 2.4055 0
M  V30 4 Pb -2.9178 1.7711 3.0380 0
M  V30 5 Pb -2.2762 2.9438 3.5840 0
M  V30 6 Pd -3.1500 -3.4621 2.9220 0
M  V30 7 Pb -2.2798 -3.5481 3.4227 0
M  V30 8 Pb -3.1557 -4.4494 2.8072 0
M  V30 9 Pb -3.2371 -2.4898 3.1677 0
M  V30 10 Pb -3.9928 -3.4564 2.3810 0
M  V30 11 Pd 0.5854 -6.7857 2.0036 0
M  V30 12 Pb 1.5138 -6.5495 1.7221 0
M  V30 13 Pb -0.3437 -7.0245 2.2542 0
M  V30 14 Pb 0.4024 -7.2596 1.1484 0
M  V30 15 Pb 0.6212 -6.1571 2.7851 0
M  V30 16 Pd -2.6532 -0.0403 -4.5858 0
M  V30 17 Pb -2.6126 -0.9396 -5.0241 0
M  V30 18 Pb -1.7573 0.1974 -4.9741 0
M  V30 19 Pb -3.5681 -0.2606 -4.2576 0
M  V30 20 Pb -2.7347 0.7907 -4.0428 0
M  V30 21 Pd 5.4118 -1.1104 1.2594 0
M  V30 22 Pb 5.3544 -0.1137 1.4687 0
M  V30 23 Pb 5.5197 -0.9267 0.2835 0
M  V30 24 Pb 5.3957 -2.0893 1.0712 0
M  V30 25 Pb 5.2292 -1.3256 2.2099 0
M  V30 26 Pd -4.3991 -4.3005 -2.4272 0
M  V30 27 Pb -4.9433 -3.4915 -2.6239 0
M  V30 28 Pb -3.9675 -4.2110 -3.3288 0
M  V30 29 Pb -3.8304 -5.1060 -2.2540 0
M  V30 30 Pb -4.8241 -4.3072 -1.5165 0
M  V30 31 Pd 2.0649 6.6488 -1.1391 0
M  V30 32 Pb 1.6498 6.5552 -2.0464 0
M  V30 33 Pb 2.4423 6.6915 -0.2117 0
M  V30 34 Pb 2.9353 6.3538 -1.5238 0
M  V30 35 Pb 1.1863 6.8871 -0.7446 0
M  V30 36 Pd 2.3838 3.5130 3.6918 0
M  V30 37 Pb 2.5033 4.4035 3.2388 0
M  V30 38 Pb 2.3506 2.6816 4.2306 0
M  V30 39 Pb 1.5550 3.7941 4.1836 0
M  V30 40 Pb 3.2017 3.1580 3.1955 0
M  V30 41 Pd 2.5825 2.8200 -4.5070 0
M  V30 42 Pb 1.9295 2.2090 -4.9631 0
M  V30 43 Pb 3.2591 3.4224 -4.0838 0
M  V30 44 Pb 1.9804 3.6100 -4.6234 0
M  V30 45 Pb 3.2049 2.0593 -4.3341 0
M  V30 46 Ag -2.4070 4.3142 2.1537 0
M  V30 47 Fe -1.0253 5.7672 0.8988 0
M  V30 48 Ag 0.5397 6.9809 -0.3943 0
M  V30 49 Ag 2.2037 -6.3596 1.5023 0
M  V30 50 Fe 3.8185 -4.6479 1.2029 0
M  V30 51 Ag 5.3176 -2.8248 0.9669 0
M  V30 52 Ag 5.5454 -0.8165 -0.4568 0
M  V30 53 Fe 4.6670 0.3208 -2.3455 0
M  V30 54 Ag 3.6996 1.5319 -4.1426 0
M  V30 55 Ag -3.0765 2.5978 1.0179 0
M  V30 56 Fe -2.9716 1.9513 -1.2649 0
M  V30 57 Ag -2.8998 1.3340 -3.5570 0
M  V30 58 Ag 4.9710 -1.3902 2.8978 0
M  V30 59 Fe 3.6308 0.0659 4.1681 0
M  V30 60 Ag 2.4376 2.0469 4.5980 0
M  V30 61 Ag 0.0990 -7.4947 0.5097 0
M  V30 62 Fe -1.6147 -6.7184 -0.9365 0
M  V30 63 Ag -3.3615 -5.6869 -2.1688 0
M  V30 64 Ba 1.3355 6.4491 -2.7215 0
M  V30 65 Ga 1.4257 5.3597 -3.7148 0
M  V30 66 Ba 1.5658 4.2342 -4.6607 0
M  V30 67 Ba -2.6168 -1.6441 -5.2863 0
M  V30 68 Ga -3.1172 -2.8951 -4.6761 0
M  V30 69 Ba -3.6403 -4.1017 -3.9990 0
M  V30 70 Ba -1.1114 0.3263 -5.3428 0
M  V30 71 Ga 0.1664 1.0690 -5.2660 0
M  V30 72 Ba 1.4839 1.7385 -5.3476 0
M  V30 73 Ba -1.9222 3.2266 4.1839 0
M  V30 74 Ga -0.5016 3.5751 4.4096 0
M  V30 75 Ba 0.9293 3.9083 4.5898 0
M  V30 76 Ba -4.2562 -0.4237 -4.0179 0
M  V30 77 Ga -4.8326 -1.6225 -3.3972 0
M  V30 78 Ba -5.3135 -2.8657 -2.7826 0
M  V30 79 Ba -4.6128 -3.5528 1.9657 0
M  V30 80 Ga -4.8802 -3.8836 0.5473 0
M  V30 81 Ba -5.1901 -4.2181 -0.8614 0
M  V30 82 Ba 2.6731 6.7366 0.5031 0
M  V30 83 Ga 2.6538 5.8685 1.7027 0
M  V30 84 Ba 2.6800 5.0833 2.9578 0
M  V30 85 Ba -3.1826 -5.1928 2.7776 0
M  V30 86 Ga -2.1580 -6.2218 2.5929 0
M  V30 87 Ba -1.0576 -7.1662 2.3946 0
M  V30 88 Ba -1.6220 -3.6695 3.7797 0
M  V30 89 Ga -0.5132 -4.6374 3.5805 0
M  V30 90 Ba 0.5595 -5.6318 3.3238 0
M  V30 91 Ba 3.5531 6.0853 -1.8448 0
M  V30 92 Ga 3.7051 4.9843 -2.8098 0
M  V30 93 Ba 3.7721 3.8720 -3.7720 0
M  V30 94 Ba -3.1488 1.1372 3.3784 0
M  V30 95 Ga -3.1913 -0.3421 3.3036 0
M  V30 96 Ba -3.3659 -1.8050 3.4615 0
M  V30 97 Ba 5.3393 0.6421 1.6125 0
M  V30 98 Ga 4.5186 1.7267 2.2416 0
M  V30 99 Ba 3.8329 2.9269 2.8200 0
M  V30 END ATOM
M  V30 BEGIN BOND
M  V30 1 1 1 2
M  V30 2 1 1 3
M  V30 3 1 1 4
M  V30 4 1 1 5
M  V30 5 1 6 7
M  V30 6 1 6 8
M  V30 7 1 6 9
M  V30 8 1 6 10
M  V30 9 1 11 12
M  V30 10 1 11 13
M  V30 11 1 11 14
M  V30 12 1 11 15
M  V30 13 1 16 17
M  V30 14 1 16 18
M  V30 15 1 16 19
M  V30 16 1 16 20
M  V30 17 1 21 22
M  V30 18 1 21 23
M  V30 19 1 21 24
M  V30 20 1 21 25
M  V30 21 1 26 27
M  V30 22 1 26 28
M  V30 23 1 26 29
M  V30 24 1 26 30
M  V30 25 1 31 32
M  V30 26 1 31 33
M  V30 27 1 31 34
M  V30 28 1 31 35
M  V30 29 1 36 37
M  V30 30 1 36 38
M  V30 31 1 36 39
M  V30 32 1 36 40
M  V30 33 1 41 42
M  V30 34 1 41 43
M  V30 35 1 41 44
M  V30 36 1 41 45
M  V30 37 1 46 47
M  V30 38 1 47 48
M  V30 39 1 49 50
M  V30 40 1 50 51
M  V30 41 1 52 53
M  V30 42 1 53 54
M  V30 43 1 55 56
M  V30 44 1 56 57
M  V30 45 1 58 59
M  V30 46 1 59 60
M  V30 47 1 61 62
M  V30 48 1 62 63
M  V30 49 1 64 65
M  V30 50 1 65 66
M  V30 51 1 67 68
M  V30 52 1 68 69
M  V30 53 1 70 71
M  V30 54 1 71 72
M  V30 55 1 73 74
M  V30 56 1 74 75
M  V30 57 1 76 77
M  V30 58 1 77 78
M  V30 59 1 79 80
M  V30 60 1 80 81
M  V30 61 1 82 83
M  V30 62 1 83 84
M  V30 63 1 85 86
M  V30 64 1 86 87
M  V30 65 1 88 89
M  V30 66 1 89 90
M  V30 67 1 91 92
M  V30 68 1 92 93
M  V30 69 1 94 95
M  V30 70 1 95 96
M  V30 71 1 97 98
M  V30 72 1 98 99
M  V30 73 1 2 55
M  V30 74 1 3 46
M  V30 75 1 4 94
M  V30 76 1 5 73
M  V30 77 1 7 88
M  V30 78 1 8 85
M  V30 79 1 9 96
M  V30 80 1 10 79
M  V30 81 1 12 49
M  V30 82 1 13 87
M  V30 83 1 14 61
M  V30 84 1 15 90
M  V30 85 1 17 67
M  V30 86 1 18 70
M  V30 87 1 19 76
M  V30 88 1 20 57
M  V30 89 1 22 97
M  V30 90 1 23 52
M  V30 91 1 24 51
M  V30 92 1 25 58
M  V30 93 1 27 78
M  V30 94 1 28 69
M  V30 95 1 29 63
M  V30 96 1 30 81
M  V30 97 1 32 64
M  V30 98 1 33 82
M  V30 99 1 34 91
M  V30 100 1 35 48
M  V30 101 1 37 84
M  V30 102 1 38 60
M  V30 103 1 39 75
M  V30 104 1 40 99
M  V30 105 1 42 72
M  V30 106 1 43 93
M  V30 107 1 44 66
M  V30 108 1 45 54
M  V30 END BOND
M  V30 END CTAB
M  END

$$$$
