
     RDKit          3D

  0  0  0  0  0  0  0  0  0  0999 V3000
M  V30 BEGIN CTAB
M  V30 COUNTS 99 108 0 0 0
M  V30 BEGIN ATOM
M  V30 1 Pd 2.6803 1.2576 -4.0829 0
M  V30 2 Pb 1.8209 1.2436 -4.5917 0
M  V30 3 Pb 2.9327 0.3781 -4.4944 0
M  V30 4 Pb 2.4113 2.1687 -3.7751 0
M  V30 5 Pb 3.5139 1.3226 -3.5299 0
M  V30 6 Pd 3.9851 -6.1379 -0.1175 0
M  V30 7 Pb 3.1176 -5.8920 0.3126 0
M  V30 8 Pb 3.5121 -6.4167 -0.9555 0
M  V30 9 Pb 4.5037 -5.7346 0.6341 0
M  V30 10 Pb 4.8467 -6.3965 -0.5426 0
M  V30 11 Pd -7.0031 -0.8774 1.7914 0
M  V30 12 Pb -6.8621 -1.6026 1.1266 0
M  V30 13 Pb -6.6890 -1.4796 2.5240 0
M  V30 14 Pb -7.1198 -0.1412 2.4550 0
M  V30 15 Pb -7.1985 -0.2283 1.0348 0
M  V30 16 Pd -3.4364 4.8851 5.2242 0
M  V30 17 Pb -4.3007 4.3898 5.1621 0
M  V30 18 Pb -3.7098 5.4592 4.4317 0
M  V30 19 Pb -3.1035 4.2317 5.9018 0
M  V30 20 Pb -2.5693 5.3675 5.2744 0
M  V30 21 Pd -0.4675 -1.8824 4.7827 0
M  V30 22 Pb -0.2947 -2.6022 4.1114 0
M  V30 23 Pb -1.3786 -2.2642 4.9370 0
M  V30 24 Pb -0.6702 -1.1592 5.4440 0
M  V30 25 Pb 0.4119 -1.4552 4.5641 0
M  V30 26 Pd -2.1204 6.1443 -0.3599 0
M  V30 27 Pb -2.7823 6.2965 0.3977 0
M  V30 28 Pb -2.8594 5.8785 -0.9861 0
M  V30 29 Pb -1.4242 5.9793 -1.0558 0
M  V30 30 Pb -1.3886 6.4477 0.2394 0
M  V30 31 Pd -4.8327 1.7676 -3.0557 0
M  V30 32 Pb -4.0821 1.7955 -3.7160 0
M  V30 33 Pb -4.7957 2.7625 -2.9262 0
M  V30 34 Pb -5.5954 1.6919 -2.3865 0
M  V30 35 Pb -4.8844 0.7856 -3.1993 0
M  V30 36 Pd 5.7711 -1.1694 0.1129 0
M  V30 37 Pb 5.1855 -0.8526 0.8621 0
M  V30 38 Pb 6.3863 -1.4457 -0.6279 0
M  V30 39 Pb 5.9115 -2.0119 0.6410 0
M  V30 40 Pb 5.6484 -0.3232 -0.4086 0
M  V30 41 Pd 5.3188 -4.0816 -4.2018 0
M  V30 42 Pb 4.5695 -4.7460 -4.2346 0
M  V30 43 Pb 4.7572 -3.3897 -4.6578 0
M  V30 44 Pb 6.0517 -3.4304 -4.0254 0
M  V30 45 Pb 5.8863 -4.7763 -3.7703 0
M  V30 46 Ag 2.4621 -5.7212 0.6321 0
M  V30 47 Fe 1.1586 -4.4164 2.1270 0
M  V30 48 Ag -0.1968 -3.1458 3.6050 0
M  V30 49 Ag 1.1529 1.2946 -4.9268 0
M  V30 50 Fe -1.1906 1.5242 -4.6203 0
M  V30 51 Ag -3.5179 1.7543 -4.2087 0
M  V30 52 Ag 1.0496 -1.1082 4.3683 0
M  V30 53 Fe 2.9094 -0.8827 2.9047 0
M  V30 54 Ag 4.7781 -0.6350 1.4559 0
M  V30 55 Ag -2.8102 3.6914 6.3289 0
M  V30 56 Fe -1.8207 1.5352 6.2304 0
M  V30 57 Ag -0.8577 -0.6137 5.9243 0
M  V30 58 Ag -6.6965 -2.0240 0.5417 0
M  V30 59 Fe -5.8063 -1.4282 -1.5556 0
M  V30 60 Ag -4.9785 0.0510 -3.1910 0
M  V30 61 Ag -1.9326 5.7220 5.1516 0
M  V30 62 Fe -0.9743 6.4066 3.1145 0
M  V30 63 Ag -0.9151 6.6428 0.7736 0
M  V30 64 Ag -7.1776 0.4161 2.9505 0
M  V30 65 Fe -6.1056 2.2232 4.0525 0
M  V30 66 Ag -4.9397 4.0065 5.0963 0
M  V30 67 Ag 2.1718 2.8622 -3.6240 0
M  V30 68 Fe 0.6584 4.3542 -2.5670 0
M  V30 69 Ag -0.8462 5.8595 -1.5161 0
M  V30 70 Ag -6.3652 -1.8896 3.0607 0
M  V30 71 Fe -4.2784 -2.2965 4.1170 0
M  V30 72 Ag -2.0839 -2.5111 4.9974 0
M  V30 73 Ba -3.9315 5.8686 3.8232 0
M  V30 74 Ga -3.5497 6.1160 2.3984 0
M  V30 75 Ba -3.2749 6.4476 0.9661 0
M  V30 76 Ba -7.3431 0.2843 0.4846 0
M  V30 77 Ga -6.7070 0.9210 -0.7093 0
M  V30 78 Ba -6.2012 1.6392 -1.9190 0
M  V30 79 Ba 5.4787 -6.5572 -0.9016 0
M  V30 80 Ga 5.9628 -5.9806 -2.1587 0
M  V30 81 Ba 6.2834 -5.2965 -3.4144 0
M  V30 82 Ba 3.2128 -6.5533 -1.6321 0
M  V30 83 Ga 3.5641 -5.9490 -2.9355 0
M  V30 84 Ba 4.0250 -5.2601 -4.1605 0
M  V30 85 Ba 4.9366 -5.3773 1.1300 0
M  V30 86 Ga 5.4699 -3.9992 1.1235 0
M  V30 87 Ba 5.9890 -2.6160 1.0863 0
M  V30 88 Ba 4.1099 1.4545 -3.0895 0
M  V30 89 Ga 4.8369 0.8348 -1.9618 0
M  V30 90 Ba 5.6256 0.2963 -0.8338 0
M  V30 91 Ba 6.8412 -1.5624 -1.2159 0
M  V30 92 Ga 6.7468 -2.2652 -2.5094 0
M  V30 93 Ba 6.6050 -2.9894 -3.7863 0
M  V30 94 Ba 3.0588 -0.2449 -4.8986 0
M  V30 95 Ga 3.7287 -1.5616 -4.8862 0
M  V30 96 Ba 4.3333 -2.9013 -5.0390 0
M  V30 97 Ba -3.4229 5.7302 -1.4649 0
M  V30 98 Ga -4.0757 4.5813 -2.1314 0
M  V30 99 Ba -4.8038 3.5124 -2.8510 0
M  V30 END ATOM
M  V30 BEGIN BOND
M  V30 1 1 1 2
M  V30 2 1 1 3
M  V30 3 1 1 4
M  V30 4 1 1 5
M  V30 5 1 6 7
M  V30 6 1 6 8
M  V30 7 1 6 9
M  V30 8 1 6 10
M  V30 9 1 11 12
M  V30 10 1 11 13
M  V30 11 1 11 14
M  V30 12 1 11 15
M  V30 13 1 16 17
M  V30 14 1 16 18
M  V30 15 1 16 19
M  V30 16 1 16 20
M  V30 17 1 21 22
M  V30 18 1 21 23
M  V30 19 1 21 24
M  V30 20 1 21 25
M  V30 21 1 26 27
M  V30 22 1 26 28
M  V30 23 1 26 29
M  V30 24 1 26 30
M  V30 25 1 31 32
M  V30 26 1 31 33
M  V30 27 1 31 34
M  V30 28 1 31 35
M  V30 29 1 36 37
M  V30 30 1 36 38
M  V30 31 1 36 39
M  V30 32 1 36 40
M  V30 33 1 41 42
M  V30 34 1 41 43
M  V30 35 1 41 44
M  V30 36 1 41 45
M  V30 37 1 46 47
M  V30 38 1 47 48
M  V30 39 1 49 50
M  V30 40 1 50 51
M  V30 41 1 52 53
M  V30 42 1 53 54
M  V30 43 1 55 56
M  V30 44 1 56 57
M  V30 45 1 58 59
M  V30 46 1 59 60
M  V30 47 1 61 62
M  V30 48 1 62 63
M  V30 49 1 64 65
M  V30 50 1 65 66
M  V30 51 1 67 68
M  V30 52 1 68 69
M  V30 53 1 70 71
M  V30 54 1 71 72
M  V30 55 1 73 74
M  V30 56 1 74 75
M  V30 57 1 76 77
M  V30 58 1 77 78
M  V30 59 1 79 80
M  V30 60 1 80 81
M  V30 61 1 82 83
M  V30 62 1 83 84
M  V30 63 1 85 86
M  V30 64 1 86 87
M  V30 65 1 88 89
M  V30 66 1 89 90
M  V30 67 1 91 92
M  V30 68 1 92 93
M  V30 69 1 94 95
M  V30 70 1 95 96
M  V30 71 1 97 98
M  V30 72 1 98 99
M  V30 73 1 2 49
M  V30 74 1 3 94
M  V30 75 1 4 67
M  V30 76 1 5 88
M  V30 77 1 7 46
M  V30 78 1 8 82
M  V30 79 1 9 85
M  V30 80 1 10 79
M  V30 81 1 12 58
M  V30 82 1 13 70
M  V30 83 1 14 64
M  V30 84 1 15 76
M  V30 85 1 17 66
M  V30 86 1 18 73
M  V30 87 1 19 55
M  V30 88 1 20 61
M  V30 89 1 22 48
M  V30 90 1 23 72
M  V30 91 1 24 57
M  V30 92 1 25 52
M  V30 93 1 27 75
M  V30 94 1 28 97
M  V30 95 1 29 69
M  V30 96 1 30 63
M  V30 97 1 32 51
M  V30 98 1 33 99
M  V30 99 1 34 78
M  V30 100 1 35 60
M  V30 101 1 37 54
M  V30 102 1 38 91
M  V30 103 1 39 87
M  V30 104 1 40 90
M  V30 105 1 42 84
M  V30 106 1 43 96
M  V30 107 1 44 93
M  V30 108 1 45 81
M  V30 END BOND
M  V30 END CTAB
M  END

$$$$
