
     RDKit          3D

  0  0  0  0  0  0  0  0  0  0999 V3000
M  V30 BEGIN CTAB
M  V30 COUNTS 99 108 0 0 0
M  V30 BEGIN ATOM
M  V30 1 Pd -0.1302 -2.9809 0.5308 0
M  V30 2 Pb -0.1980 -2.7604 1.5054 0
M  V30 3 Pb -0.7905 -3.7095 0.6939 0
M  V30 4 Pb 0.6060 -2.3118 0.4135 0
M  V30 5 Pb -0.1388 -3.1719 -0.4529 0
M  V30 6 Pd 4.1797 -1.7083 -2.9582 0
M  V30 7 Pb 4.5924 -1.8109 -3.8621 0
M  V30 8 Pb 3.3718 -1.2827 -3.3835 0
M  V30 9 Pb 3.7852 -1.5086 -2.0579 0
M  V30 10 Pb 5.0811 -1.8946 -2.5664 0
M  V30 11 Pd 3.7350 3.3011 -3.6286 0
M  V30 12 Pb 3.1644 3.4746 -2.8281 0
M  V30 13 Pb 3.0558 2.6316 -3.9550 0
M  V30 14 Pb 4.4987 3.7691 -3.1910 0
M  V30 15 Pb 4.2836 3.1234 -4.4442 0
M  V30 16 Pd 1.8490 0.6784 3.8399 0
M  V30 17 Pb 2.5087 0.0559 4.2436 0
M  V30 18 Pb 1.1767 1.2808 3.4116 0
M  V30 19 Pb 2.6050 1.3040 3.5641 0
M  V30 20 Pb 1.1391 0.0045 4.0273 0
M  V30 21 Pd -3.4687 3.3984 -1.1814 0
M  V30 22 Pb -4.4167 3.2621 -1.4474 0
M  V30 23 Pb -3.7586 3.9640 -0.4089 0
M  V30 24 Pb -2.5138 3.5371 -0.9242 0
M  V30 25 Pb -3.1781 2.7718 -1.9299 0
M  V30 26 Pd 6.5599 1.2281 0.4050 0
M  V30 27 Pb 6.0031 1.7353 1.0891 0
M  V30 28 Pb 6.6681 0.4902 1.0595 0
M  V30 29 Pb 6.5426 2.0206 -0.2175 0
M  V30 30 Pb 6.9980 0.6152 -0.2538 0
M  V30 31 Pd -5.1963 -3.7675 2.8412 0
M  V30 32 Pb -6.0305 -3.3181 3.1421 0
M  V30 33 Pb -5.6653 -4.2824 2.1278 0
M  V30 34 Pb -4.6590 -3.1387 3.4337 0
M  V30 35 Pb -4.3788 -4.2445 2.5244 0
M  V30 36 Pd -3.7582 -2.0349 -3.4507 0
M  V30 37 Pb -4.2184 -2.8866 -3.2027 0
M  V30 38 Pb -3.3379 -1.1194 -3.5830 0
M  V30 39 Pb -2.8531 -2.4616 -3.3641 0
M  V30 40 Pb -4.6551 -1.6137 -3.5293 0
M  V30 41 Pd -3.8190 1.8912 3.6476 0
M  V30 42 Pb -2.8854 2.0427 3.3159 0
M  V30 43 Pb -3.6304 0.9344 3.9435 0
M  V30 44 Pb -4.7621 1.7700 3.9382 0
M  V30 45 Pb -4.0355 2.8065 3.3080 0
M  V30 46 Ag -6.5582 -2.8614 3.3893 0
M  V30 47 Fe -6.4786 -0.5640 3.9023 0
M  V30 48 Ag -5.4498 1.5458 4.0971 0
M  V30 49 Ag 3.0798 -0.3827 4.4052 0
M  V30 50 Fe 5.1356 -0.5864 3.2836 0
M  V30 51 Ag 6.6755 -0.0126 1.6016 0
M  V30 52 Ag 2.7080 3.5943 -2.2475 0
M  V30 53 Fe 0.4734 3.6314 -1.4495 0
M  V30 54 Ag -1.7935 3.6401 -0.7479 0
M  V30 55 Ag -5.8691 -4.6008 1.4838 0
M  V30 56 Fe -5.3831 -4.2321 -0.8083 0
M  V30 57 Ag -4.6150 -3.4521 -2.9129 0
M  V30 58 Ag 4.9025 -1.6543 -4.5181 0
M  V30 59 Fe 5.1007 0.5342 -5.3597 0
M  V30 60 Ag 4.6513 2.8190 -5.0144 0
M  V30 61 Ag -5.0696 3.0251 -1.7026 0
M  V30 62 Fe -5.6629 0.9791 -2.7064 0
M  V30 63 Ag -5.2669 -1.1966 -3.5163 0
M  V30 64 Ba -1.2401 -4.2787 0.8727 0
M  V30 65 Ga -2.5354 -4.4367 1.5546 0
M  V30 66 Ba -3.8247 -4.6540 2.2313 0
M  V30 67 Ba 0.6812 1.7263 3.0694 0
M  V30 68 Ga -0.7793 1.9412 3.0865 0
M  V30 69 Ba -2.2229 2.2412 3.0190 0
M  V30 70 Ba -0.1748 -3.3057 -1.1923 0
M  V30 71 Ga -1.1783 -3.0396 -2.2465 0
M  V30 72 Ba -2.1716 -2.7810 -3.3122 0
M  V30 73 Ba 3.1681 1.7867 3.3605 0
M  V30 74 Ga 4.3628 1.8842 2.4622 0
M  V30 75 Ba 5.5753 2.1025 1.6101 0
M  V30 76 Ba 5.7988 -1.9041 -2.3425 0
M  V30 77 Ga 6.5696 -0.9529 -1.5128 0
M  V30 78 Ba 7.2610 0.0453 -0.6685 0
M  V30 79 Ba 2.8204 -0.8738 -3.7069 0
M  V30 80 Ga 2.6755 0.5894 -3.9416 0
M  V30 81 Ba 2.5914 2.0619 -4.1457 0
M  V30 82 Ba -3.9719 4.3506 0.1977 0
M  V30 83 Ga -4.0922 3.9571 1.6144 0
M  V30 84 Ba -4.1830 3.4772 3.0064 0
M  V30 85 Ba -0.3091 -2.5985 2.2311 0
M  V30 86 Ga 0.1576 -1.5777 3.1868 0
M  V30 87 Ba 0.6435 -0.5462 4.1213 0
M  V30 88 Ba -4.2318 -2.6596 3.8549 0
M  V30 89 Ga -3.9091 -1.2022 3.9764 0
M  V30 90 Ba -3.5015 0.2213 4.2006 0
M  V30 91 Ba -2.9329 2.3222 -2.5024 0
M  V30 92 Ga -3.0267 0.9287 -3.0386 0
M  V30 93 Ba -3.0335 -0.4231 -3.6798 0
M  V30 94 Ba 1.1888 -1.8388 0.3698 0
M  V30 95 Ga 2.3258 -1.5917 -0.5422 0
M  V30 96 Ba 3.4883 -1.2858 -1.4027 0
M  V30 97 Ba 5.0963 4.0089 -2.8099 0
M  V30 98 Ga 5.8369 3.3382 -1.7178 0
M  V30 99 Ba 6.5718 2.6571 -0.6282 0
M  V30 END ATOM
M  V30 BEGIN BOND
M  V30 1 1 1 2
M  V30 2 1 1 3
M  V30 3 1 1 4
M  V30 4 1 1 5
M  V30 5 1 6 7
M  V30 6 1 6 8
M  V30 7 1 6 9
M  V30 8 1 6 10
M  V30 9 1 11 12
M  V30 10 1 11 13
M  V30 11 1 11 14
M  V30 12 1 11 15
M  V30 13 1 16 17
M  V30 14 1 16 18
M  V30 15 1 16 19
M  V30 16 1 16 20
M  V30 17 1 21 22
M  V30 18 1 21 23
M  V30 19 1 21 24
M  V30 20 1 21 25
M  V30 21 1 26 27
M  V30 22 1 26 28
M  V30 23 1 26 29
M  V30 24 1 26 30
M  V30 25 1 31 32
M  V30 26 1 31 33
M  V30 27 1 31 34
M  V30 28 1 31 35
M  V30 29 1 36 37
M  V30 30 1 36 38
M  V30 31 1 36 39
M  V30 32 1 36 40
M  V30 33 1 41 42
M  V30 34 1 41 43
M  V30 35 1 41 44
M  V30 36 1 41 45
M  V30 37 1 46 47
M  V30 38 1 47 48
M  V30 39 1 49 50
M  V30 40 1 50 51
M  V30 41 1 52 53
M  V30 42 1 53 54
M  V30 43 1 55 56
M  V30 44 1 56 57
M  V30 45 1 58 59
M  V30 46 1 59 60
M  V30 47 1 61 62
M  V30 48 1 62 63
M  V30 49 1 64 65
M  V30 50 1 65 66
M  V30 51 1 67 68
M  V30 52 1 68 69
M  V30 53 1 70 71
M  V30 54 1 71 72
M  V30 55 1 73 74
M  V30 56 1 74 75
M  V30 57 1 76 77
M  V30 58 1 77 78
M  V30 59 1 79 80
M  V30 60 1 80 81
M  V30 61 1 82 83
M  V30 62 1 83 84
M  V30 63 1 85 86
M  V30 64 1 86 87
M  V30 65 1 88 89
M  V30 66 1 89 90
M  V30 67 1 91 92
M  V30 68 1 92 93
M  V30 69 1 94 95
M  V30 70 1 95 96
M  V30 71 1 97 98
M  V30 72 1 98 99
M  V30 73 1 2 85
M  V30 74 1 3 64
M  V30 75 1 4 94
M  V30 76 1 5 70
M  V30 77 1 7 58
M  V30 78 1 8 79
M  V30 79 1 9 96
M  V30 80 1 10 76
M  V30 81 1 12 52
M  V30 82 1 13 81
M  V30 83 1 14 97
M  V30 84 1 15 60
M  V30 85 1 17 49
M  V30 86 1 18 67
M  V30 87 1 19 73
M  V30 88 1 20 87
M  V30 89 1 22 61
M  V30 90 1 23 82
M  V30 91 1 24 54
M  V30 92 1 25 91
M  V30 93 1 27 75
M  V30 94 1 28 51
M  V30 95 1 29 99
M  V30 96 1 30 78
M  V30 97 1 32 46
M  V30 98 1 33 55
M  V30 99 1 34 88
M  V30 100 1 35 66
M  V30 101 1 37 57
M  V30 102 1 38 93
M  V30 103 1 39 72
M  V30 104 1 40 63
M  V30 105 1 42 69
M  V30 106 1 43 90
M  V30 107 1 44 48
M  V30 108 1 45 84
M  V30 END BOND
M  V30 END CTAB
M  END

$$$$
