
     RDKit          3D

  0  0  0  0  0  0  0  0  0  0999 V3000
M  V30 BEGIN CTAB
M  V30 COUNTS 99 108 0 0 0
M  V30 BEGIN ATOM
M  V30 1 Pd -1.5423 2.8215 3.9911 0
M  V30 2 Pb -0.8142 3.4189 4.3372 0
M  V30 3 Pb -1.6945 3.4545 3.2316 0
M  V30 4 Pb -1.4362 2.1825 4.7520 0
M  V30 5 Pb -2.2632 2.2210 3.6474 0
M  V30 6 Pd -4.4459 2.1752 -6.1058 0
M  V30 7 Pb -3.5654 1.7039 -6.0546 0
M  V30 8 Pb -3.9789 3.0600 -6.0684 0
M  V30 9 Pb -4.9572 1.3217 -6.0223 0
M  V30 10 Pb -5.3159 2.6595 -6.1272 0
M  V30 11 Pd 6.9334 -0.0371 -1.4135 0
M  V30 12 Pb 6.4958 0.8593 -1.3011 0
M  V30 13 Pb 6.4852 -0.2229 -2.2854 0
M  V30 14 Pb 7.2682 -0.9761 -1.4618 0
M  V30 15 Pb 7.3153 0.0949 -0.5026 0
M  V30 16 Pd 3.6446 -6.1404 0.3737 0
M  V30 17 Pb 4.4847 -5.9472 -0.1311 0
M  V30 18 Pb 2.8229 -6.2528 0.9358 0
M  V30 19 Pb 3.1360 -6.2809 -0.4794 0
M  V30 20 Pb 4.1408 -6.0014 1.2290 0
M  V30 21 Pd 0.7219 -3.4277 -3.8210 0
M  V30 22 Pb 0.3848 -2.5772 -4.2255 0
M  V30 23 Pb 1.6320 -3.1411 -4.1169 0
M  V30 24 Pb 1.0615 -4.3053 -3.4696 0
M  V30 25 Pb -0.1996 -3.6477 -3.5028 0
M  V30 26 Pd 2.0203 -3.2357 6.7358 0
M  V30 27 Pb 1.5271 -3.8962 6.1653 0
M  V30 28 Pb 2.5241 -2.5114 7.2032 0
M  V30 29 Pb 1.1947 -2.7137 6.9357 0
M  V30 30 Pb 2.8589 -3.6939 6.4513 0
M  V30 31 Pd 4.1197 3.1999 4.3739 0
M  V30 32 Pb 3.2780 3.7113 4.5665 0
M  V30 33 Pb 4.0985 2.7920 5.2857 0
M  V30 34 Pb 4.9599 2.6968 4.1828 0
M  V30 35 Pb 4.1579 3.5081 3.4200 0
M  V30 36 Pd -5.9321 -0.3060 -1.6662 0
M  V30 37 Pb -5.3878 -1.1355 -1.7963 0
M  V30 38 Pb -6.4775 0.5205 -1.5000 0
M  V30 39 Pb -6.1834 -0.3690 -2.6348 0
M  V30 40 Pb -5.6615 -0.2639 -0.7059 0
M  V30 41 Pd -5.4552 4.9749 -2.4750 0
M  V30 42 Pb -4.7961 5.3318 -3.1380 0
M  V30 43 Pb -4.7830 5.0833 -1.7410 0
M  V30 44 Pb -6.0975 4.4903 -1.8832 0
M  V30 45 Pb -6.1146 4.8788 -3.2164 0
M  V30 46 Ag -2.8873 1.3872 -6.0069 0
M  V30 47 Fe -1.4043 -0.3109 -5.2594 0
M  V30 48 Ag 0.1763 -1.9452 -4.5723 0
M  V30 49 Ag -0.8960 -3.7660 -3.2526 0
M  V30 50 Fe -2.9543 -2.7958 -2.5722 0
M  V30 51 Ag -4.9840 -1.7588 -1.9049 0
M  V30 52 Ag 2.2650 -6.2733 1.4399 0
M  V30 53 Fe 1.6170 -5.3980 3.5542 0
M  V30 54 Ag 1.2290 -4.3731 5.6649 0
M  V30 55 Ag 7.5053 0.2285 0.2065 0
M  V30 56 Fe 6.6718 1.2425 2.1807 0
M  V30 57 Ag 5.5787 2.3283 3.9827 0
M  V30 58 Ag 6.1457 1.5013 -1.1157 0
M  V30 59 Fe 5.1638 2.6806 0.7039 0
M  V30 60 Ag 4.2541 3.6388 2.6839 0
M  V30 61 Ag 4.4575 -5.8872 1.8974 0
M  V30 62 Fe 4.0983 -5.0013 4.0682 0
M  V30 63 Ag 3.4413 -4.0359 6.1325 0
M  V30 64 Ag 7.4014 -1.7109 -1.5049 0
M  V30 65 Fe 6.3902 -3.8059 -1.0367 0
M  V30 66 Ag 5.1249 -5.7260 -0.4507 0
M  V30 67 Ag -1.4113 1.6665 5.2952 0
M  V30 68 Fe -0.4366 -0.2879 6.2242 0
M  V30 69 Ag 0.6298 -2.2390 7.0533 0
M  V30 70 Ag -2.7960 1.7481 3.4148 0
M  V30 71 Fe -4.1250 0.7735 1.7064 0
M  V30 72 Ag -5.4654 -0.2148 0.0148 0
M  V30 73 Ag -1.8252 3.9328 2.6686 0
M  V30 74 Fe -3.0553 4.5385 0.7283 0
M  V30 75 Ag -4.2566 5.1888 -1.2155 0
M  V30 76 Ag 2.8517 -1.8969 7.4773 0
M  V30 77 Fe 3.5279 0.2895 6.8489 0
M  V30 78 Ag 4.0961 2.4001 5.9240 0
M  V30 79 Ag 6.1367 -0.4705 -2.8993 0
M  V30 80 Fe 4.2354 -1.6456 -3.6982 0
M  V30 81 Ag 2.2804 -2.8331 -4.3320 0
M  V30 82 Ba -0.2845 3.8935 4.5854 0
M  V30 83 Ga 1.1920 3.9639 4.6457 0
M  V30 84 Ba 2.6613 4.1072 4.7414 0
M  V30 85 Ba 2.7636 -6.4130 -1.1203 0
M  V30 86 Ga 2.0344 -5.6525 -2.1591 0
M  V30 87 Ba 1.2863 -4.9913 -3.2510 0
M  V30 88 Ba -5.9505 3.0469 -6.0764 0
M  V30 89 Ga -6.3518 3.9361 -4.9804 0
M  V30 90 Ba -6.5712 4.7766 -3.7978 0
M  V30 91 Ba -3.6796 3.7404 -5.9594 0
M  V30 92 Ga -3.9397 4.6858 -4.8550 0
M  V30 93 Ba -4.3137 5.5071 -3.6859 0
M  V30 94 Ba -5.3963 0.7282 -5.8956 0
M  V30 95 Ga -5.8683 0.1122 -4.6392 0
M  V30 96 Ba -6.3251 -0.4805 -3.3660 0
M  V30 97 Ba -6.8701 1.1299 -1.2904 0
M  V30 98 Ga -6.7368 2.5982 -1.3993 0
M  V30 99 Ba -6.5952 4.0649 -1.5181 0
M  V30 END ATOM
M  V30 BEGIN BOND
M  V30 1 1 1 2
M  V30 2 1 1 3
M  V30 3 1 1 4
M  V30 4 1 1 5
M  V30 5 1 6 7
M  V30 6 1 6 8
M  V30 7 1 6 9
M  V30 8 1 6 10
M  V30 9 1 11 12
M  V30 10 1 11 13
M  V30 11 1 11 14
M  V30 12 1 11 15
M  V30 13 1 16 17
M  V30 14 1 16 18
M  V30 15 1 16 19
M  V30 16 1 16 20
M  V30 17 1 21 22
M  V30 18 1 21 23
M  V30 19 1 21 24
M  V30 20 1 21 25
M  V30 21 1 26 27
M  V30 22 1 26 28
M  V30 23 1 26 29
M  V30 24 1 26 30
M  V30 25 1 31 32
M  V30 26 1 31 33
M  V30 27 1 31 34
M  V30 28 1 31 35
M  V30 29 1 36 37
M  V30 30 1 36 38
M  V30 31 1 36 39
M  V30 32 1 36 40
M  V30 33 1 41 42
M  V30 34 1 41 43
M  V30 35 1 41 44
M  V30 36 1 41 45
M  V30 37 1 46 47
M  V30 38 1 47 48
M  V30 39 1 49 50
M  V30 40 1 50 51
M  V30 41 1 52 53
M  V30 42 1 53 54
M  V30 43 1 55 56
M  V30 44 1 56 57
M  V30 45 1 58 59
M  V30 46 1 59 60
M  V30 47 1 61 62
M  V30 48 1 62 63
M  V30 49 1 64 65
M  V30 50 1 65 66
M  V30 51 1 67 68
M  V30 52 1 68 69
M  V30 53 1 70 71
M  V30 54 1 71 72
M  V30 55 1 73 74
M  V30 56 1 74 75
M  V30 57 1 76 77
M  V30 58 1 77 78
M  V30 59 1 79 80
M  V30 60 1 80 81
M  V30 61 1 82 83
M  V30 62 1 83 84
M  V30 63 1 85 86
M  V30 64 1 86 87
M  V30 65 1 88 89
M  V30 66 1 89 90
M  V30 67 1 91 92
M  V30 68 1 92 93
M  V30 69 1 94 95
M  V30 70 1 95 96
M  V30 71 1 97 98
M  V30 72 1 98 99
M  V30 73 1 2 82
M  V30 74 1 3 73
M  V30 75 1 4 67
M  V30 76 1 5 70
M  V30 77 1 7 46
M  V30 78 1 8 91
M  V30 79 1 9 94
M  V30 80 1 10 88
M  V30 81 1 12 58
M  V30 82 1 13 79
M  V30 83 1 14 64
M  V30 84 1 15 55
M  V30 85 1 17 66
M  V30 86 1 18 52
M  V30 87 1 19 85
M  V30 88 1 20 61
M  V30 89 1 22 48
M  V30 90 1 23 81
M  V30 91 1 24 87
M  V30 92 1 25 49
M  V30 93 1 27 54
M  V30 94 1 28 76
M  V30 95 1 29 69
M  V30 96 1 30 63
M  V30 97 1 32 84
M  V30 98 1 33 78
M  V30 99 1 34 57
M  V30 100 1 35 60
M  V30 101 1 37 51
M  V30 102 1 38 97
M  V30 103 1 39 96
M  V30 104 1 40 72
M  V30 105 1 42 93
M  V30 106 1 43 75
M  V30 107 1 44 99
M  V30 108 1 45 90
M  V30 END BOND
M  V30 END CTAB
M  END

$$$$
