
     RDKit          3D

  0  0  0  0  0  0  0  0  0  0999 V3000
M  V30 BEGIN CTAB
M  V30 COUNTS 99 108 0 0 0
M  V30 BEGIN ATOM
M  V30 1 Pd -2.7453 -4.1337 -1.4904 0
M  V30 2 Pb -3.3714 -3.6525 -0.8773 0
M  V30 3 Pb -2.6169 -4.8285 -0.7755 0
M  V30 4 Pb -2.9972 -3.5106 -2.2352 0
M  V30 5 Pb -2.1107 -4.5919 -2.1209 0
M  V30 6 Pd 1.4725 -1.6319 3.9064 0
M  V30 7 Pb 1.0800 -1.0408 3.2024 0
M  V30 8 Pb 0.5701 -1.7793 4.3148 0
M  V30 9 Pb 2.3443 -1.5903 3.4228 0
M  V30 10 Pb 1.8400 -2.3059 4.5429 0
M  V30 11 Pd 0.6835 6.3362 3.1178 0
M  V30 12 Pb 0.1072 5.7325 3.6655 0
M  V30 13 Pb 1.4965 5.8133 3.3646 0
M  V30 14 Pb 1.2524 6.8680 2.4915 0
M  V30 15 Pb -0.1625 6.7206 2.7464 0
M  V30 16 Pd 3.2411 4.7542 -3.3444 0
M  V30 17 Pb 3.4450 5.5381 -2.7599 0
M  V30 18 Pb 2.3014 5.0804 -3.4319 0
M  V30 19 Pb 4.1389 4.3454 -3.1852 0
M  V30 20 Pb 2.9577 3.9363 -3.8441 0
M  V30 21 Pd 3.4049 0.8956 -0.5892 0
M  V30 22 Pb 2.5273 0.6697 -0.1621 0
M  V30 23 Pb 3.6634 1.3668 0.2546 0
M  V30 24 Pb 4.2444 1.2183 -1.0276 0
M  V30 25 Pb 3.1233 0.4600 -1.4489 0
M  V30 26 Pd -3.1158 1.2776 -3.7020 0
M  V30 27 Pb -2.8431 2.2356 -3.6212 0
M  V30 28 Pb -4.0286 1.5002 -3.3546 0
M  V30 29 Pb -3.3612 0.3146 -3.8224 0
M  V30 30 Pb -2.1967 1.0983 -4.0539 0
M  V30 31 Pd -5.0404 2.6556 1.1112 0
M  V30 32 Pb -5.1946 1.6722 1.1975 0
M  V30 33 Pb -5.4655 2.6188 0.2062 0
M  V30 34 Pb -4.8282 3.6320 1.0301 0
M  V30 35 Pb -4.5730 2.6887 1.9931 0
M  V30 36 Pd 2.5969 -4.1022 -2.4696 0
M  V30 37 Pb 2.5009 -3.2201 -2.9294 0
M  V30 38 Pb 2.6702 -4.9537 -1.9548 0
M  V30 39 Pb 3.2797 -3.6861 -1.8722 0
M  V30 40 Pb 1.8311 -4.5015 -2.9770 0
M  V30 41 Pd -0.3815 -5.9441 3.5742 0
M  V30 42 Pb -0.9410 -5.2566 4.0383 0
M  V30 43 Pb -1.0850 -6.1212 2.8824 0
M  V30 44 Pb 0.2313 -6.5258 3.0462 0
M  V30 45 Pb 0.3428 -5.7569 4.2375 0
M  V30 46 Ag -3.8327 -3.2790 -0.4192 0
M  V30 47 Fe -4.5897 -1.1969 0.4345 0
M  V30 48 Ag -5.2836 0.9292 1.2318 0
M  V30 49 Ag 1.5695 5.2345 -3.4624 0
M  V30 50 Fe -0.5696 4.2085 -3.5305 0
M  V30 51 Ag -2.5700 2.9327 -3.5961 0
M  V30 52 Ag -0.8305 6.8707 2.4371 0
M  V30 53 Fe -2.7890 5.7510 1.6865 0
M  V30 54 Ag -4.5957 4.3479 1.0378 0
M  V30 55 Ag -0.3753 5.2568 3.9823 0
M  V30 56 Fe -2.2880 3.9514 3.4663 0
M  V30 57 Ag -4.1700 2.7830 2.6167 0
M  V30 58 Ag 2.6600 3.3239 -4.1572 0
M  V30 59 Fe 0.6406 2.0840 -4.3146 0
M  V30 60 Ag -1.4927 1.0405 -4.3070 0
M  V30 61 Ag 1.7032 7.1785 1.9798 0
M  V30 62 Fe 2.6872 6.7861 -0.1445 0
M  V30 63 Ag 3.5003 6.0981 -2.2658 0
M  V30 64 Ag 2.9409 -1.6275 2.9743 0
M  V30 65 Fe 3.5327 -2.4285 0.8222 0
M  V30 66 Ag 3.7039 -3.3512 -1.3556 0
M  V30 67 Ag 2.6754 -5.5575 -1.5147 0
M  V30 68 Fe 1.7817 -6.3966 0.5139 0
M  V30 69 Ag 0.6947 -6.8615 2.5679 0
M  V30 70 Ag 2.0804 5.3506 3.4289 0
M  V30 71 Fe 3.0710 3.5325 2.2683 0
M  V30 72 Ag 3.8083 1.7527 0.8814 0
M  V30 73 Ba 0.7889 -0.6466 2.6349 0
M  V30 74 Ga 1.3354 -0.0412 1.4042 0
M  V30 75 Ba 1.8580 0.5704 0.1662 0
M  V30 76 Ba 2.9097 0.1625 -2.1081 0
M  V30 77 Ga 2.6765 -1.1850 -2.6681 0
M  V30 78 Ba 2.4441 -2.5337 -3.2257 0
M  V30 79 Ba 4.7625 3.9606 -3.0288 0
M  V30 80 Ga 4.8852 2.7391 -2.2117 0
M  V30 81 Ba 4.8355 1.5295 -1.3696 0
M  V30 82 Ba 2.0531 -2.8793 4.9716 0
M  V30 83 Ga 1.5247 -4.2518 4.9160 0
M  V30 84 Ba 0.8822 -5.5617 4.7201 0
M  V30 85 Ba -0.1015 -1.9787 4.5869 0
M  V30 86 Ga -0.7619 -3.2984 4.5224 0
M  V30 87 Ba -1.2782 -4.6740 4.3711 0
M  V30 88 Ba -3.2506 -3.1132 -2.8227 0
M  V30 89 Ga -3.3583 -1.7316 -3.3355 0
M  V30 90 Ba -3.5309 -0.4038 -3.9607 0
M  V30 91 Ba -1.6521 -4.9016 -2.6349 0
M  V30 92 Ga -0.2093 -4.8610 -2.9633 0
M  V30 93 Ba 1.2326 -4.8262 -3.2966 0
M  V30 94 Ba -2.6327 -5.3765 -0.2559 0
M  V30 95 Ga -2.0639 -5.7809 1.0490 0
M  V30 96 Ba -1.5794 -6.3046 2.3457 0
M  V30 97 Ba -4.7058 1.7027 -3.0985 0
M  V30 98 Ga -5.2447 2.1270 -1.7906 0
M  V30 99 Ba -5.7699 2.5491 -0.4765 0
M  V30 END ATOM
M  V30 BEGIN BOND
M  V30 1 1 1 2
M  V30 2 1 1 3
M  V30 3 1 1 4
M  V30 4 1 1 5
M  V30 5 1 6 7
M  V30 6 1 6 8
M  V30 7 1 6 9
M  V30 8 1 6 10
M  V30 9 1 11 12
M  V30 10 1 11 13
M  V30 11 1 11 14
M  V30 12 1 11 15
M  V30 13 1 16 17
M  V30 14 1 16 18
M  V30 15 1 16 19
M  V30 16 1 16 20
M  V30 17 1 21 22
M  V30 18 1 21 23
M  V30 19 1 21 24
M  V30 20 1 21 25
M  V30 21 1 26 27
M  V30 22 1 26 28
M  V30 23 1 26 29
M  V30 24 1 26 30
M  V30 25 1 31 32
M  V30 26 1 31 33
M  V30 27 1 31 34
M  V30 28 1 31 35
M  V30 29 1 36 37
M  V30 30 1 36 38
M  V30 31 1 36 39
M  V30 32 1 36 40
M  V30 33 1 41 42
M  V30 34 1 41 43
M  V30 35 1 41 44
M  V30 36 1 41 45
M  V30 37 1 46 47
M  V30 38 1 47 48
M  V30 39 1 49 50
M  V30 40 1 50 51
M  V30 41 1 52 53
M  V30 42 1 53 54
M  V30 43 1 55 56
M  V30 44 1 56 57
M  V30 45 1 58 59
M  V30 46 1 59 60
M  V30 47 1 61 62
M  V30 48 1 62 63
M  V30 49 1 64 65
M  V30 50 1 65 66
M  V30 51 1 67 68
M  V30 52 1 68 69
M  V30 53 1 70 71
M  V30 54 1 71 72
M  V30 55 1 73 74
M  V30 56 1 74 75
M  V30 57 1 76 77
M  V30 58 1 77 78
M  V30 59 1 79 80
M  V30 60 1 80 81
M  V30 61 1 82 83
M  V30 62 1 83 84
M  V30 63 1 85 86
M  V30 64 1 86 87
M  V30 65 1 88 89
M  V30 66 1 89 90
M  V30 67 1 91 92
M  V30 68 1 92 93
M  V30 69 1 94 95
M  V30 70 1 95 96
M  V30 71 1 97 98
M  V30 72 1 98 99
M  V30 73 1 2 46
M  V30 74 1 3 94
M  V30 75 1 4 88
M  V30 76 1 5 91
M  V30 77 1 7 73
M  V30 78 1 8 85
M  V30 79 1 9 64
M  V30 80 1 10 82
M  V30 81 1 12 55
M  V30 82 1 13 70
M  V30 83 1 14 61
M  V30 84 1 15 52
M  V30 85 1 17 63
M  V30 86 1 18 49
M  V30 87 1 19 79
M  V30 88 1 20 58
M  V30 89 1 22 75
M  V30 90 1 23 72
M  V30 91 1 24 81
M  V30 92 1 25 76
M  V30 93 1 27 51
M  V30 94 1 28 97
M  V30 95 1 29 90
M  V30 96 1 30 60
M  V30 97 1 32 48
M  V30 98 1 33 99
M  V30 99 1 34 54
M  V30 100 1 35 57
M  V30 101 1 37 78
M  V30 102 1 38 67
M  V30 103 1 39 66
M  V30 104 1 40 93
M  V30 105 1 42 87
M  V30 106 1 43 96
M  V30 107 1 44 69
M  V30 108 1 45 84
M  V30 END BOND
M  V30 END CTAB
M  END

$$$$
