
     RDKit          3D

  0  0  0  0  0  0  0  0  0  0999 V3000
M  V30 BEGIN CTAB
M  V30 COUNTS 99 108 0 0 0
M  V30 BEGIN ATOM
M  V30 1 Pd 2.8048 -1.8532 -0.6047 0
M  V30 2 Pb 2.6303 -2.5569 -1.2908 0
M  V30 3 Pb 2.9234 -1.1287 0.0720 0
M  V30 4 Pb 3.0589 -1.1977 -1.3187 0
M  V30 5 Pb 2.5571 -2.5152 0.1042 0
M  V30 6 Pd 3.2343 2.2640 7.1080 0
M  V30 7 Pb 2.3965 2.5002 6.6086 0
M  V30 8 Pb 3.7670 2.8607 6.4944 0
M  V30 9 Pb 2.8062 1.4922 7.5739 0
M  V30 10 Pb 4.0674 2.0872 7.6285 0
M  V30 11 Pd -6.1311 -1.1012 -3.7816 0
M  V30 12 Pb -5.7638 -2.0290 -3.7832 0
M  V30 13 Pb -6.3184 -1.1631 -2.8036 0
M  V30 14 Pb -6.5334 -0.1835 -3.7426 0
M  V30 15 Pb -5.8582 -1.0204 -4.7455 0
M  V30 16 Pd -4.0889 3.3875 -2.6643 0
M  V30 17 Pb -5.0769 3.2620 -2.6352 0
M  V30 18 Pb -3.0703 3.4119 -2.7566 0
M  V30 19 Pb -4.0459 3.6231 -1.6902 0
M  V30 20 Pb -4.1884 3.2359 -3.6357 0
M  V30 21 Pd -3.4204 1.5442 2.7857 0
M  V30 22 Pb -2.7091 2.0600 3.2677 0
M  V30 23 Pb -4.1303 1.0151 2.3215 0
M  V30 24 Pb -3.6206 2.3468 2.2214 0
M  V30 25 Pb -3.2005 0.7484 3.3440 0
M  V30 26 Pd 0.8397 1.0316 -5.2013 0
M  V30 27 Pb 0.4332 1.7218 -4.5638 0
M  V30 28 Pb 1.1407 0.3264 -5.8390 0
M  V30 29 Pb 1.6174 0.8762 -4.5873 0
M  V30 30 Pb 0.1245 1.1965 -5.8632 0
M  V30 31 Pd -1.9138 -3.1290 -6.1247 0
M  V30 32 Pb -1.1954 -3.6467 -5.6654 0
M  V30 33 Pb -1.1800 -2.7074 -6.6613 0
M  V30 34 Pb -2.6378 -2.5586 -6.5260 0
M  V30 35 Pb -2.6088 -3.5687 -5.5604 0
M  V30 36 Pd 2.4296 -2.6066 5.0317 0
M  V30 37 Pb 1.4408 -2.5235 5.1273 0
M  V30 38 Pb 3.4172 -2.7045 4.8808 0
M  V30 39 Pb 2.5011 -2.1582 5.9302 0
M  V30 40 Pb 2.2975 -3.0758 4.1579 0
M  V30 41 Pd 6.3066 0.5411 3.3850 0
M  V30 42 Pb 6.1630 1.5147 3.6059 0
M  V30 43 Pb 5.4583 0.5746 2.8575 0
M  V30 44 Pb 6.3213 -0.4563 3.3644 0
M  V30 45 Pb 7.0988 0.5186 3.9926 0
M  V30 46 Ag 1.7892 2.7483 6.2378 0
M  V30 47 Fe -0.1898 2.5311 4.9370 0
M  V30 48 Ag -2.1812 2.4456 3.6397 0
M  V30 49 Ag 2.4434 -3.0716 -1.8005 0
M  V30 50 Fe 0.9573 -3.6219 -3.5656 0
M  V30 51 Ag -0.6268 -3.9633 -5.2979 0
M  V30 52 Ag -2.9978 0.1606 3.7571 0
M  V30 53 Fe -1.1982 -1.1869 4.5096 0
M  V30 54 Ag 0.7004 -2.4404 5.1763 0
M  V30 55 Ag 4.7516 1.9412 7.8805 0
M  V30 56 Fe 6.6420 1.2056 6.6873 0
M  V30 57 Ag 7.5163 0.5517 4.6042 0
M  V30 58 Ag -4.1894 3.1022 -4.3588 0
M  V30 59 Fe -2.5746 2.2287 -5.8179 0
M  V30 60 Ag -0.4556 1.3424 -6.2907 0
M  V30 61 Ag -6.4141 -1.1524 -2.0620 0
M  V30 62 Fe -5.5762 -0.3040 -0.0098 0
M  V30 63 Ag -4.6541 0.6001 1.9818 0
M  V30 64 Ba -4.0463 3.8657 -0.9773 0
M  V30 65 Ga -3.8914 3.3626 0.4035 0
M  V30 66 Ba -3.7531 2.9686 1.8211 0
M  V30 67 Ba -2.3002 3.4386 -2.8150 0
M  V30 68 Ga -1.1266 2.7884 -3.4914 0
M  V30 69 Ba 0.1482 2.2535 -4.0801 0
M  V30 70 Ba -5.6043 -0.9890 -5.4564 0
M  V30 71 Ga -4.4117 -1.5520 -6.1353 0
M  V30 72 Ba -3.2077 -2.1316 -6.7790 0
M  V30 73 Ba 4.2037 3.2272 5.9924 0
M  V30 74 Ga 5.1060 2.7494 4.9075 0
M  V30 75 Ba 5.9950 2.2193 3.8360 0
M  V30 76 Ba -5.4879 -2.7239 -3.7964 0
M  V30 77 Ga -4.3172 -3.3283 -4.4512 0
M  V30 78 Ba -3.1331 -3.8797 -5.1282 0
M  V30 79 Ba -6.8580 0.4856 -3.6226 0
M  V30 80 Ga -6.3732 1.8050 -3.1719 0
M  V30 81 Ba -5.7981 3.0893 -2.7270 0
M  V30 82 Ba 2.5896 0.8359 7.8643 0
M  V30 83 Ga 2.5070 -0.5063 7.2443 0
M  V30 84 Ba 2.4345 -1.8458 6.6170 0
M  V30 85 Ba 3.2765 -0.6945 -1.8333 0
M  V30 86 Ga 2.7077 0.0224 -2.9940 0
M  V30 87 Ba 2.2356 0.7884 -4.1665 0
M  V30 88 Ba 2.3681 -3.0441 0.6027 0
M  V30 89 Ga 2.2887 -3.2088 2.0674 0
M  V30 90 Ba 2.1826 -3.4529 3.5192 0
M  V30 91 Ba 4.1306 -2.8265 4.6671 0
M  V30 92 Ga 5.2214 -2.0285 4.0683 0
M  V30 93 Ba 6.2906 -1.1960 3.4778 0
M  V30 94 Ba 2.9742 -0.5530 0.5477 0
M  V30 95 Ga 3.9264 0.0047 1.5247 0
M  V30 96 Ba 4.7925 0.6570 2.5230 0
M  V30 97 Ba 1.2406 -0.1976 -6.3637 0
M  V30 98 Ga 0.3672 -1.3337 -6.7175 0
M  V30 99 Ba -0.5638 -2.4432 -7.0034 0
M  V30 END ATOM
M  V30 BEGIN BOND
M  V30 1 1 1 2
M  V30 2 1 1 3
M  V30 3 1 1 4
M  V30 4 1 1 5
M  V30 5 1 6 7
M  V30 6 1 6 8
M  V30 7 1 6 9
M  V30 8 1 6 10
M  V30 9 1 11 12
M  V30 10 1 11 13
M  V30 11 1 11 14
M  V30 12 1 11 15
M  V30 13 1 16 17
M  V30 14 1 16 18
M  V30 15 1 16 19
M  V30 16 1 16 20
M  V30 17 1 21 22
M  V30 18 1 21 23
M  V30 19 1 21 24
M  V30 20 1 21 25
M  V30 21 1 26 27
M  V30 22 1 26 28
M  V30 23 1 26 29
M  V30 24 1 26 30
M  V30 25 1 31 32
M  V30 26 1 31 33
M  V30 27 1 31 34
M  V30 28 1 31 35
M  V30 29 1 36 37
M  V30 30 1 36 38
M  V30 31 1 36 39
M  V30 32 1 36 40
M  V30 33 1 41 42
M  V30 34 1 41 43
M  V30 35 1 41 44
M  V30 36 1 41 45
M  V30 37 1 46 47
M  V30 38 1 47 48
M  V30 39 1 49 50
M  V30 40 1 50 51
M  V30 41 1 52 53
M  V30 42 1 53 54
M  V30 43 1 55 56
M  V30 44 1 56 57
M  V30 45 1 58 59
M  V30 46 1 59 60
M  V30 47 1 61 62
M  V30 48 1 62 63
M  V30 49 1 64 65
M  V30 50 1 65 66
M  V30 51 1 67 68
M  V30 52 1 68 69
M  V30 53 1 70 71
M  V30 54 1 71 72
M  V30 55 1 73 74
M  V30 56 1 74 75
M  V30 57 1 76 77
M  V30 58 1 77 78
M  V30 59 1 79 80
M  V30 60 1 80 81
M  V30 61 1 82 83
M  V30 62 1 83 84
M  V30 63 1 85 86
M  V30 64 1 86 87
M  V30 65 1 88 89
M  V30 66 1 89 90
M  V30 67 1 91 92
M  V30 68 1 92 93
M  V30 69 1 94 95
M  V30 70 1 95 96
M  V30 71 1 97 98
M  V30 72 1 98 99
M  V30 73 1 2 49
M  V30 74 1 3 94
M  V30 75 1 4 85
M  V30 76 1 5 88
M  V30 77 1 7 46
M  V30 78 1 8 73
M  V30 79 1 9 82
M  V30 80 1 10 55
M  V30 81 1 12 76
M  V30 82 1 13 61
M  V30 83 1 14 79
M  V30 84 1 15 70
M  V30 85 1 17 81
M  V30 86 1 18 67
M  V30 87 1 19 64
M  V30 88 1 20 58
M  V30 89 1 22 48
M  V30 90 1 23 63
M  V30 91 1 24 66
M  V30 92 1 25 52
M  V30 93 1 27 69
M  V30 94 1 28 97
M  V30 95 1 29 87
M  V30 96 1 30 60
M  V30 97 1 32 51
M  V30 98 1 33 99
M  V30 99 1 34 72
M  V30 100 1 35 78
M  V30 101 1 37 54
M  V30 102 1 38 91
M  V30 103 1 39 84
M  V30 104 1 40 90
M  V30 105 1 42 75
M  V30 106 1 43 96
M  V30 107 1 44 93
M  V30 108 1 45 57
M  V30 END BOND
M  V30 END CTAB
M  END

$$$$
