
     RDKit          3D

  0  0  0  0  0  0  0  0  0  0999 V3000
M  V30 BEGIN CTAB
M  V30 COUNTS 99 108 0 0 0
M  V30 BEGIN ATOM
M  V30 1 Pd -2.7732 -2.6222 2.8773 0
M  V30 2 Pb -2.3380 -3.4824 3.1500 0
M  V30 3 Pb -2.3018 -2.7096 2.0017 0
M  V30 4 Pb -3.2492 -2.5191 3.7542 0
M  V30 5 Pb -3.2289 -1.7983 2.5418 0
M  V30 6 Pd -0.3347 -1.1582 -8.4027 0
M  V30 7 Pb 0.3954 -0.5474 -8.0915 0
M  V30 8 Pb 0.1644 -1.9555 -8.0706 0
M  V30 9 Pb -0.9426 -0.3885 -8.5694 0
M  V30 10 Pb -1.0924 -1.7620 -8.6444 0
M  V30 11 Pd 5.8474 1.0366 0.6678 0
M  V30 12 Pb 5.9005 0.5789 1.5510 0
M  V30 13 Pb 5.8187 1.5002 -0.2210 0
M  V30 14 Pb 6.1119 1.8906 1.1123 0
M  V30 15 Pb 5.4821 0.1727 0.3083 0
M  V30 16 Pd 1.9022 5.3832 4.6338 0
M  V30 17 Pb 2.8879 5.3910 4.4740 0
M  V30 18 Pb 2.0022 4.9390 5.5219 0
M  V30 19 Pb 1.8034 5.7572 3.7132 0
M  V30 20 Pb 0.9126 5.2812 4.7572 0
M  V30 21 Pd 2.3985 3.7878 -2.9608 0
M  V30 22 Pb 2.4368 3.2481 -3.8056 0
M  V30 23 Pb 3.3605 3.5573 -2.7990 0
M  V30 24 Pb 2.3507 4.3777 -2.1534 0
M  V30 25 Pb 1.4347 4.0080 -3.1063 0
M  V30 26 Pd -1.9552 0.1093 7.5477 0
M  V30 27 Pb -1.1714 0.6317 7.8799 0
M  V30 28 Pb -1.5437 -0.7364 7.8792 0
M  V30 29 Pb -2.7122 -0.4267 7.1687 0
M  V30 30 Pb -2.2773 0.9632 7.1353 0
M  V30 31 Pd 2.2611 -4.2936 4.0297 0
M  V30 32 Pb 1.4150 -4.7729 3.7962 0
M  V30 33 Pb 1.9667 -4.3337 4.9819 0
M  V30 34 Pb 2.5397 -4.1571 3.0732 0
M  V30 35 Pb 3.0643 -3.7626 4.2817 0
M  V30 36 Pd -4.7242 1.2449 -3.4529 0
M  V30 37 Pb -4.2319 2.1079 -3.3656 0
M  V30 38 Pb -5.1297 0.3343 -3.5577 0
M  V30 39 Pb -4.6309 1.3518 -4.4413 0
M  V30 40 Pb -4.7830 1.1655 -2.4572 0
M  V30 41 Pd -2.6149 -3.5002 -4.9507 0
M  V30 42 Pb -1.7115 -3.7737 -5.2921 0
M  V30 43 Pb -2.2324 -3.4079 -4.0327 0
M  V30 44 Pb -3.5158 -3.1922 -4.6315 0
M  V30 45 Pb -2.9564 -3.5706 -5.8863 0
M  V30 46 Ag 0.9324 -0.0922 -7.8282 0
M  V30 47 Fe 1.6974 1.3861 -6.1302 0
M  V30 48 Ag 2.4990 2.8696 -4.4538 0
M  V30 49 Ag 0.7085 4.1855 -3.1604 0
M  V30 50 Fe -1.5641 3.5078 -3.2547 0
M  V30 51 Ag -3.8001 2.7179 -3.3472 0
M  V30 52 Ag 1.7922 5.9973 3.0039 0
M  V30 53 Fe 2.0184 5.4248 0.7097 0
M  V30 54 Ag 2.2478 4.8593 -1.5859 0
M  V30 55 Ag 1.9921 4.5481 6.1594 0
M  V30 56 Fe 0.7988 2.8095 7.2466 0
M  V30 57 Ag -0.5850 1.0615 8.0583 0
M  V30 58 Ag 5.1628 -0.4949 0.1562 0
M  V30 59 Fe 3.9702 -2.2956 1.1619 0
M  V30 60 Ag 2.7958 -3.9677 2.3873 0
M  V30 61 Ag 5.9149 0.1957 2.1908 0
M  V30 62 Fe 4.8753 -1.5454 3.4155 0
M  V30 63 Ag 3.6448 -3.3120 4.4037 0
M  V30 64 Ag 0.1908 5.1144 4.8901 0
M  V30 65 Fe -1.2336 3.4516 5.8180 0
M  V30 66 Ag -2.3972 1.6295 6.8084 0
M  V30 67 Ag 6.2191 2.5132 1.5134 0
M  V30 68 Fe 5.0585 4.0292 2.9224 0
M  V30 69 Ag 3.6042 5.3400 4.2630 0
M  V30 70 Ag -1.4865 0.1200 -8.5575 0
M  V30 71 Fe -3.0711 0.9194 -6.9864 0
M  V30 72 Ag -4.4890 1.4677 -5.1671 0
M  V30 73 Ag -3.5809 -1.2040 2.2503 0
M  V30 74 Fe -4.2089 -0.0199 0.2895 0
M  V30 75 Ag -4.8055 1.1174 -1.7085 0
M  V30 76 Ag -1.9404 -2.7835 1.3508 0
M  V30 77 Fe -1.9591 -3.0574 -1.0066 0
M  V30 78 Ag -1.9051 -3.3315 -3.3635 0
M  V30 79 Ag -1.1803 -1.3700 8.0340 0
M  V30 80 Fe 0.2691 -2.9447 7.0145 0
M  V30 81 Ag 1.6856 -4.2915 5.6728 0
M  V30 82 Ba -2.0080 -4.1477 3.2703 0
M  V30 83 Ga -0.6275 -4.6279 3.4845 0
M  V30 84 Ba 0.7517 -5.1110 3.7002 0
M  V30 85 Ba -1.6826 -2.2095 -8.7515 0
M  V30 86 Ga -2.4680 -2.9381 -7.7422 0
M  V30 87 Ba -3.1401 -3.5974 -6.6110 0
M  V30 88 Ba 0.4321 -2.5658 -7.7309 0
M  V30 89 Ga -0.2411 -3.3129 -6.6498 0
M  V30 90 Ba -1.0380 -3.9490 -5.5815 0
M  V30 91 Ba -3.6309 -2.4116 4.3946 0
M  V30 92 Ga -3.4353 -1.6356 5.6381 0
M  V30 93 Ba -3.2546 -0.8654 6.8874 0
M  V30 94 Ba -5.3969 -0.3656 -3.6285 0
M  V30 95 Ga -4.7972 -1.6606 -4.0194 0
M  V30 96 Ba -4.1968 -2.9555 -4.4100 0
M  V30 97 Ba 5.8439 1.8737 -0.8742 0
M  V30 98 Ga 4.9290 2.6116 -1.7709 0
M  V30 99 Ba 4.0840 3.3661 -2.7209 0
M  V30 END ATOM
M  V30 BEGIN BOND
M  V30 1 1 1 2
M  V30 2 1 1 3
M  V30 3 1 1 4
M  V30 4 1 1 5
M  V30 5 1 6 7
M  V30 6 1 6 8
M  V30 7 1 6 9
M  V30 8 1 6 10
M  V30 9 1 11 12
M  V30 10 1 11 13
M  V30 11 1 11 14
M  V30 12 1 11 15
M  V30 13 1 16 17
M  V30 14 1 16 18
M  V30 15 1 16 19
M  V30 16 1 16 20
M  V30 17 1 21 22
M  V30 18 1 21 23
M  V30 19 1 21 24
M  V30 20 1 21 25
M  V30 21 1 26 27
M  V30 22 1 26 28
M  V30 23 1 26 29
M  V30 24 1 26 30
M  V30 25 1 31 32
M  V30 26 1 31 33
M  V30 27 1 31 34
M  V30 28 1 31 35
M  V30 29 1 36 37
M  V30 30 1 36 38
M  V30 31 1 36 39
M  V30 32 1 36 40
M  V30 33 1 41 42
M  V30 34 1 41 43
M  V30 35 1 41 44
M  V30 36 1 41 45
M  V30 37 1 46 47
M  V30 38 1 47 48
M  V30 39 1 49 50
M  V30 40 1 50 51
M  V30 41 1 52 53
M  V30 42 1 53 54
M  V30 43 1 55 56
M  V30 44 1 56 57
M  V30 45 1 58 59
M  V30 46 1 59 60
M  V30 47 1 61 62
M  V30 48 1 62 63
M  V30 49 1 64 65
M  V30 50 1 65 66
M  V30 51 1 67 68
M  V30 52 1 68 69
M  V30 53 1 70 71
M  V30 54 1 71 72
M  V30 55 1 73 74
M  V30 56 1 74 75
M  V30 57 1 76 77
M  V30 58 1 77 78
M  V30 59 1 79 80
M  V30 60 1 80 81
M  V30 61 1 82 83
M  V30 62 1 83 84
M  V30 63 1 85 86
M  V30 64 1 86 87
M  V30 65 1 88 89
M  V30 66 1 89 90
M  V30 67 1 91 92
M  V30 68 1 92 93
M  V30 69 1 94 95
M  V30 70 1 95 96
M  V30 71 1 97 98
M  V30 72 1 98 99
M  V30 73 1 2 82
M  V30 74 1 3 76
M  V30 75 1 4 91
M  V30 76 1 5 73
M  V30 77 1 7 46
M  V30 78 1 8 88
M  V30 79 1 9 70
M  V30 80 1 10 85
M  V30 81 1 12 61
M  V30 82 1 13 97
M  V30 83 1 14 67
M  V30 84 1 15 58
M  V30 85 1 17 69
M  V30 86 1 18 55
M  V30 87 1 19 52
M  V30 88 1 20 64
M  V30 89 1 22 48
M  V30 90 1 23 99
M  V30 91 1 24 54
M  V30 92 1 25 49
M  V30 93 1 27 57
M  V30 94 1 28 79
M  V30 95 1 29 93
M  V30 96 1 30 66
M  V30 97 1 32 84
M  V30 98 1 33 81
M  V30 99 1 34 60
M  V30 100 1 35 63
M  V30 101 1 37 51
M  V30 102 1 38 94
M  V30 103 1 39 72
M  V30 104 1 40 75
M  V30 105 1 42 90
M  V30 106 1 43 78
M  V30 107 1 44 96
M  V30 108 1 45 87
M  V30 END BOND
M  V30 END CTAB
M  END

$$$$
