
     RDKit          3D

  0  0  0  0  0  0  0  0  0  0999 V3000
M  V30 BEGIN CTAB
M  V30 COUNTS 99 108 0 0 0
M  V30 BEGIN ATOM
M  V30 1 Pd -0.3793 -5.5744 -2.5164 0
M  V30 2 Pb -0.6621 -5.1990 -1.6345 0
M  V30 3 Pb 0.0027 -6.3900 -2.0724 0
M  V30 4 Pb -0.0034 -5.9039 -3.3783 0
M  V30 5 Pb -0.8144 -4.7973 -2.9709 0
M  V30 6 Pd 0.0332 -0.6541 0.4873 0
M  V30 7 Pb 0.7288 -0.6912 -0.2393 0
M  V30 8 Pb -0.2281 -1.6209 0.3986 0
M  V30 9 Pb -0.6922 -0.5577 1.1705 0
M  V30 10 Pb 0.2507 0.3077 0.6542 0
M  V30 11 Pd -8.4443 5.5540 -3.7278 0
M  V30 12 Pb -7.6114 5.7725 -4.2452 0
M  V30 13 Pb -8.3790 4.6049 -4.0239 0
M  V30 14 Pb -9.0902 5.2954 -3.0069 0
M  V30 15 Pb -8.3685 6.4532 -3.3044 0
M  V30 16 Pd -4.5553 0.1503 -0.7233 0
M  V30 17 Pb -4.3239 0.1858 0.2470 0
M  V30 18 Pb -4.2748 -0.2171 -1.6080 0
M  V30 19 Pb -3.9667 0.9480 -0.8767 0
M  V30 20 Pb -5.1354 0.3700 -1.5084 0
M  V30 21 Pd 4.2345 -7.1643 -2.5405 0
M  V30 22 Pb 3.6361 -7.0967 -3.3395 0
M  V30 23 Pb 4.7699 -6.3731 -2.8540 0
M  V30 24 Pb 4.8531 -7.2331 -1.7622 0
M  V30 25 Pb 3.5823 -7.7997 -2.1379 0
M  V30 26 Pd 2.3661 3.1088 6.2003 0
M  V30 27 Pb 3.2044 3.6293 6.0184 0
M  V30 28 Pb 2.8538 2.6738 6.9570 0
M  V30 29 Pb 1.6645 2.3969 6.2720 0
M  V30 30 Pb 1.9667 3.4175 5.3386 0
M  V30 31 Pd 5.4561 -1.7987 -0.6899 0
M  V30 32 Pb 4.6798 -1.3635 -1.1504 0
M  V30 33 Pb 5.4820 -2.5197 -1.4023 0
M  V30 34 Pb 5.5404 -1.0264 -0.0606 0
M  V30 35 Pb 6.1359 -2.3203 -0.1827 0
M  V30 36 Pd -4.6369 5.8254 -1.1071 0
M  V30 37 Pb -5.2834 6.5908 -1.1483 0
M  V30 38 Pb -4.4625 5.9904 -2.0823 0
M  V30 39 Pb -4.0033 5.0485 -1.0971 0
M  V30 40 Pb -5.0393 5.5702 -0.2260 0
M  V30 41 Pd 5.8366 0.4530 4.7879 0
M  V30 42 Pb 5.9174 0.5317 3.7943 0
M  V30 43 Pb 6.0851 1.4217 4.8748 0
M  V30 44 Pb 5.3532 -0.4227 4.7289 0
M  V30 45 Pb 5.6623 0.4601 5.7745 0
M  V30 46 Ag -8.2270 3.8845 -4.1465 0
M  V30 47 Fe -6.9462 2.1230 -3.2044 0
M  V30 48 Ag -5.5918 0.5292 -2.0827 0
M  V30 49 Ag 1.3718 1.7115 6.2237 0
M  V30 50 Fe 2.6575 -0.1381 5.5123 0
M  V30 51 Ag 4.7758 -0.8922 4.7885 0
M  V30 52 Ag 0.3694 1.0177 0.8651 0
M  V30 53 Fe 1.0219 2.4041 2.6792 0
M  V30 54 Ag 1.7173 3.5426 4.6435 0
M  V30 55 Ag -1.1870 -4.2231 -3.2770 0
M  V30 56 Fe -2.5949 -2.3558 -2.8704 0
M  V30 57 Ag -3.9843 -0.5470 -2.2135 0
M  V30 58 Ag 5.3495 -7.1333 -1.2174 0
M  V30 59 Fe 6.2576 -5.1934 -0.2255 0
M  V30 60 Ag 6.5142 -2.8752 0.1324 0
M  V30 61 Ag -9.3137 5.1212 -2.3157 0
M  V30 62 Fe -7.8073 5.0714 -0.4951 0
M  V30 63 Ag -5.5828 5.3703 0.2455 0
M  V30 64 Ba -3.4928 1.5260 -0.9691 0
M  V30 65 Ga -3.5434 3.0021 -1.0384 0
M  V30 66 Ba -3.5129 4.4782 -1.1173 0
M  V30 67 Ba -8.1980 7.0671 -2.9144 0
M  V30 68 Ga -7.0156 7.1990 -2.0432 0
M  V30 69 Ba -5.7883 7.1434 -1.2268 0
M  V30 70 Ba -6.9189 5.9272 -4.5073 0
M  V30 71 Ga -5.6513 6.0286 -3.7384 0
M  V30 72 Ba -4.4763 6.0947 -2.8311 0
M  V30 73 Ba 0.2813 -7.0256 -1.7770 0
M  V30 74 Ga 1.6200 -7.6475 -1.7700 0
M  V30 75 Ba 3.0036 -8.1567 -1.8304 0
M  V30 76 Ba 3.8938 3.8901 5.8554 0
M  V30 77 Ga 5.0700 3.1030 5.4086 0
M  V30 78 Ba 6.1374 2.1690 4.9716 0
M  V30 79 Ba -1.2638 -0.4430 1.6440 0
M  V30 80 Ga -2.6807 -0.1375 1.3728 0
M  V30 81 Ba -4.0613 0.1567 0.9470 0
M  V30 82 Ba 5.6627 -0.4054 0.3417 0
M  V30 83 Ga 5.7891 0.0636 1.7346 0
M  V30 84 Ba 5.9459 0.6888 3.0614 0
M  V30 85 Ba 0.3674 -6.1533 -3.9759 0
M  V30 86 Ga 1.7637 -6.6175 -4.0222 0
M  V30 87 Ba 3.1665 -7.0538 -3.9234 0
M  V30 88 Ba 1.2207 -0.6408 -0.8120 0
M  V30 89 Ga 2.6508 -0.8774 -1.1162 0
M  V30 90 Ba 4.0676 -1.0903 -1.4923 0
M  V30 91 Ba 5.1282 -5.7386 -3.0574 0
M  V30 92 Ga 5.3291 -4.3867 -2.4682 0
M  V30 93 Ba 5.5919 -3.0055 -1.9812 0
M  V30 94 Ba -0.8407 -4.9014 -0.9702 0
M  V30 95 Ga -0.6406 -3.5921 -0.3121 0
M  V30 96 Ba -0.4940 -2.3273 0.4396 0
M  V30 97 Ba 3.2824 2.2816 7.4315 0
M  V30 98 Ga 4.3963 1.3858 7.0601 0
M  V30 99 Ba 5.4695 0.5417 6.4967 0
M  V30 END ATOM
M  V30 BEGIN BOND
M  V30 1 1 1 2
M  V30 2 1 1 3
M  V30 3 1 1 4
M  V30 4 1 1 5
M  V30 5 1 6 7
M  V30 6 1 6 8
M  V30 7 1 6 9
M  V30 8 1 6 10
M  V30 9 1 11 12
M  V30 10 1 11 13
M  V30 11 1 11 14
M  V30 12 1 11 15
M  V30 13 1 16 17
M  V30 14 1 16 18
M  V30 15 1 16 19
M  V30 16 1 16 20
M  V30 17 1 21 22
M  V30 18 1 21 23
M  V30 19 1 21 24
M  V30 20 1 21 25
M  V30 21 1 26 27
M  V30 22 1 26 28
M  V30 23 1 26 29
M  V30 24 1 26 30
M  V30 25 1 31 32
M  V30 26 1 31 33
M  V30 27 1 31 34
M  V30 28 1 31 35
M  V30 29 1 36 37
M  V30 30 1 36 38
M  V30 31 1 36 39
M  V30 32 1 36 40
M  V30 33 1 41 42
M  V30 34 1 41 43
M  V30 35 1 41 44
M  V30 36 1 41 45
M  V30 37 1 46 47
M  V30 38 1 47 48
M  V30 39 1 49 50
M  V30 40 1 50 51
M  V30 41 1 52 53
M  V30 42 1 53 54
M  V30 43 1 55 56
M  V30 44 1 56 57
M  V30 45 1 58 59
M  V30 46 1 59 60
M  V30 47 1 61 62
M  V30 48 1 62 63
M  V30 49 1 64 65
M  V30 50 1 65 66
M  V30 51 1 67 68
M  V30 52 1 68 69
M  V30 53 1 70 71
M  V30 54 1 71 72
M  V30 55 1 73 74
M  V30 56 1 74 75
M  V30 57 1 76 77
M  V30 58 1 77 78
M  V30 59 1 79 80
M  V30 60 1 80 81
M  V30 61 1 82 83
M  V30 62 1 83 84
M  V30 63 1 85 86
M  V30 64 1 86 87
M  V30 65 1 88 89
M  V30 66 1 89 90
M  V30 67 1 91 92
M  V30 68 1 92 93
M  V30 69 1 94 95
M  V30 70 1 95 96
M  V30 71 1 97 98
M  V30 72 1 98 99
M  V30 73 1 2 94
M  V30 74 1 3 73
M  V30 75 1 4 85
M  V30 76 1 5 55
M  V30 77 1 7 88
M  V30 78 1 8 96
M  V30 79 1 9 79
M  V30 80 1 10 52
M  V30 81 1 12 70
M  V30 82 1 13 46
M  V30 83 1 14 61
M  V30 84 1 15 67
M  V30 85 1 17 81
M  V30 86 1 18 57
M  V30 87 1 19 64
M  V30 88 1 20 48
M  V30 89 1 22 87
M  V30 90 1 23 91
M  V30 91 1 24 58
M  V30 92 1 25 75
M  V30 93 1 27 76
M  V30 94 1 28 97
M  V30 95 1 29 49
M  V30 96 1 30 54
M  V30 97 1 32 90
M  V30 98 1 33 93
M  V30 99 1 34 82
M  V30 100 1 35 60
M  V30 101 1 37 69
M  V30 102 1 38 72
M  V30 103 1 39 66
M  V30 104 1 40 63
M  V30 105 1 42 84
M  V30 106 1 43 78
M  V30 107 1 44 51
M  V30 108 1 45 99
M  V30 END BOND
M  V30 END CTAB
M  END

$$$$
