
     RDKit          3D

  0  0  0  0  0  0  0  0  0  0999 V3000
M  V30 BEGIN CTAB
M  V30 COUNTS 99 108 0 0 0
M  V30 BEGIN ATOM
M  V30 1 Pd 5.1693 4.8892 -4.7093 0
M  V30 2 Pb 4.9723 3.9545 -4.9764 0
M  V30 3 Pb 5.7025 4.5519 -3.9306 0
M  V30 4 Pb 4.5763 5.2034 -5.4536 0
M  V30 5 Pb 5.2190 5.8314 -4.3889 0
M  V30 6 Pd -4.3776 -2.1874 6.2162 0
M  V30 7 Pb -4.1887 -3.1680 6.1606 0
M  V30 8 Pb -3.4868 -1.9759 6.6176 0
M  V30 9 Pb -5.2355 -2.3790 5.7269 0
M  V30 10 Pb -4.6032 -1.2167 6.1923 0
M  V30 11 Pd 0.9391 6.6216 -3.7735 0
M  V30 12 Pb 0.8985 6.6173 -2.7778 0
M  V30 13 Pb 0.1262 6.0340 -3.8561 0
M  V30 14 Pb 1.1188 6.5553 -4.7524 0
M  V30 15 Pb 1.7666 7.1811 -3.6907 0
M  V30 16 Pd 4.1798 1.9811 0.0197 0
M  V30 17 Pb 4.9077 2.3960 -0.5369 0
M  V30 18 Pb 3.8944 2.8750 0.3561 0
M  V30 19 Pb 4.3329 1.1013 -0.4338 0
M  V30 20 Pb 3.4894 1.6066 0.6377 0
M  V30 21 Pd 2.7694 -1.9041 4.1925 0
M  V30 22 Pb 2.7485 -2.8270 4.5589 0
M  V30 23 Pb 3.2650 -2.2809 3.4138 0
M  V30 24 Pb 2.2077 -1.6073 4.9638 0
M  V30 25 Pb 2.6106 -1.0339 3.7259 0
M  V30 26 Pd -2.6192 -5.5955 2.2380 0
M  V30 27 Pb -3.1075 -5.6195 3.1141 0
M  V30 28 Pb -2.0791 -5.5977 1.3907 0
M  V30 29 Pb -1.7951 -5.7953 2.7633 0
M  V30 30 Pb -3.4545 -5.4310 1.7011 0
M  V30 31 Pd -6.4489 -1.6892 0.9804 0
M  V30 32 Pb -6.6887 -2.0524 1.8895 0
M  V30 33 Pb -6.2123 -1.2986 0.0918 0
M  V30 34 Pb -6.2473 -2.6212 0.6722 0
M  V30 35 Pb -6.5831 -0.7703 1.3431 0
M  V30 36 Pd 1.6355 -3.0503 -1.0846 0
M  V30 37 Pb 2.3483 -2.3987 -1.3576 0
M  V30 38 Pb 0.9763 -3.7778 -0.8586 0
M  V30 39 Pb 1.0373 -2.8180 -1.8549 0
M  V30 40 Pb 2.2766 -3.3028 -0.3615 0
M  V30 41 Pd -1.1298 1.0922 -3.9771 0
M  V30 42 Pb -0.1883 1.1628 -4.2933 0
M  V30 43 Pb -1.2836 2.0881 -4.0194 0
M  V30 44 Pb -2.0825 0.9605 -3.7059 0
M  V30 45 Pb -0.9932 0.1016 -3.9420 0
M  V30 46 Ag -2.8037 -1.7777 6.8547 0
M  V30 47 Fe -0.5082 -1.5797 6.2804 0
M  V30 48 Ag 1.7417 -1.4576 5.5313 0
M  V30 49 Ag 4.6916 3.2863 -5.1323 0
M  V30 50 Fe 2.6429 2.1259 -4.8828 0
M  V30 51 Ag 0.5155 1.1432 -4.5417 0
M  V30 52 Ag 1.0270 6.5633 -2.0447 0
M  V30 53 Fe 2.2414 5.1725 -0.5588 0
M  V30 54 Ag 3.5518 3.5179 0.5194 0
M  V30 55 Ag -6.0402 -0.9632 -0.5557 0
M  V30 56 Fe -4.4171 -0.0710 -2.0410 0
M  V30 57 Ag -2.7974 0.8225 -3.5292 0
M  V30 58 Ag -4.8439 -0.5409 5.9997 0
M  V30 59 Fe -5.8155 0.1602 3.9672 0
M  V30 60 Ag -6.5901 -0.1561 1.7612 0
M  V30 61 Ag 2.5753 -3.5327 4.7093 0
M  V30 62 Fe 0.7746 -4.9281 4.0667 0
M  V30 63 Ag -1.1847 -5.9162 3.1769 0
M  V30 64 Ba 3.5969 -2.6532 2.8570 0
M  V30 65 Ga 3.2056 -3.0363 1.4892 0
M  V30 66 Ba 2.8363 -3.4348 0.1196 0
M  V30 67 Ba 5.1161 6.5324 -4.1541 0
M  V30 68 Ga 3.8019 7.1336 -3.8661 0
M  V30 69 Ba 2.4119 7.5622 -3.6273 0
M  V30 70 Ba 4.4166 0.4849 -0.8564 0
M  V30 71 Ga 3.6527 -0.7442 -1.1630 0
M  V30 72 Ba 2.9615 -1.9975 -1.5365 0
M  V30 73 Ba -5.8666 -2.5406 5.3430 0
M  V30 74 Ga -6.3519 -2.4097 3.9465 0
M  V30 75 Ba -6.8991 -2.3097 2.5705 0
M  V30 76 Ba -4.0609 -5.3482 1.2565 0
M  V30 77 Ga -5.0608 -4.3197 0.8879 0
M  V30 78 Ba -6.0868 -3.3314 0.4824 0
M  V30 79 Ba -4.1296 -3.9103 6.0629 0
M  V30 80 Ga -3.7518 -4.7812 4.9293 0
M  V30 81 Ba -3.3835 -5.6785 3.8132 0
M  V30 82 Ba 4.0828 5.4340 -5.9722 0
M  V30 83 Ga 2.7165 5.9645 -5.8047 0
M  V30 84 Ba 1.3796 6.4752 -5.4486 0
M  V30 85 Ba 0.5742 -2.7176 -2.4396 0
M  V30 86 Ga -0.1393 -1.6428 -3.1585 0
M  V30 87 Ba -0.8919 -0.6420 -3.9419 0
M  V30 88 Ba -0.4993 5.6159 -3.9318 0
M  V30 89 Ga -0.9167 4.1926 -3.9811 0
M  V30 90 Ba -1.4775 2.8205 -4.0491 0
M  V30 91 Ba -1.6689 -5.6479 0.7593 0
M  V30 92 Ga -0.5844 -4.9365 0.0417 0
M  V30 93 Ba 0.4889 -4.3543 -0.7984 0
M  V30 94 Ba 2.9695 1.4302 1.1484 0
M  V30 95 Ga 2.7337 0.4666 2.2407 0
M  V30 96 Ba 2.3701 -0.4247 3.3589 0
M  V30 97 Ba 6.0873 4.2738 -3.3470 0
M  V30 98 Ga 5.7546 3.4909 -2.1353 0
M  V30 99 Ba 5.4876 2.7085 -0.9072 0
M  V30 END ATOM
M  V30 BEGIN BOND
M  V30 1 1 1 2
M  V30 2 1 1 3
M  V30 3 1 1 4
M  V30 4 1 1 5
M  V30 5 1 6 7
M  V30 6 1 6 8
M  V30 7 1 6 9
M  V30 8 1 6 10
M  V30 9 1 11 12
M  V30 10 1 11 13
M  V30 11 1 11 14
M  V30 12 1 11 15
M  V30 13 1 16 17
M  V30 14 1 16 18
M  V30 15 1 16 19
M  V30 16 1 16 20
M  V30 17 1 21 22
M  V30 18 1 21 23
M  V30 19 1 21 24
M  V30 20 1 21 25
M  V30 21 1 26 27
M  V30 22 1 26 28
M  V30 23 1 26 29
M  V30 24 1 26 30
M  V30 25 1 31 32
M  V30 26 1 31 33
M  V30 27 1 31 34
M  V30 28 1 31 35
M  V30 29 1 36 37
M  V30 30 1 36 38
M  V30 31 1 36 39
M  V30 32 1 36 40
M  V30 33 1 41 42
M  V30 34 1 41 43
M  V30 35 1 41 44
M  V30 36 1 41 45
M  V30 37 1 46 47
M  V30 38 1 47 48
M  V30 39 1 49 50
M  V30 40 1 50 51
M  V30 41 1 52 53
M  V30 42 1 53 54
M  V30 43 1 55 56
M  V30 44 1 56 57
M  V30 45 1 58 59
M  V30 46 1 59 60
M  V30 47 1 61 62
M  V30 48 1 62 63
M  V30 49 1 64 65
M  V30 50 1 65 66
M  V30 51 1 67 68
M  V30 52 1 68 69
M  V30 53 1 70 71
M  V30 54 1 71 72
M  V30 55 1 73 74
M  V30 56 1 74 75
M  V30 57 1 76 77
M  V30 58 1 77 78
M  V30 59 1 79 80
M  V30 60 1 80 81
M  V30 61 1 82 83
M  V30 62 1 83 84
M  V30 63 1 85 86
M  V30 64 1 86 87
M  V30 65 1 88 89
M  V30 66 1 89 90
M  V30 67 1 91 92
M  V30 68 1 92 93
M  V30 69 1 94 95
M  V30 70 1 95 96
M  V30 71 1 97 98
M  V30 72 1 98 99
M  V30 73 1 2 49
M  V30 74 1 3 97
M  V30 75 1 4 82
M  V30 76 1 5 67
M  V30 77 1 7 79
M  V30 78 1 8 46
M  V30 79 1 9 73
M  V30 80 1 10 58
M  V30 81 1 12 52
M  V30 82 1 13 88
M  V30 83 1 14 84
M  V30 84 1 15 69
M  V30 85 1 17 99
M  V30 86 1 18 54
M  V30 87 1 19 70
M  V30 88 1 20 94
M  V30 89 1 22 61
M  V30 90 1 23 64
M  V30 91 1 24 48
M  V30 92 1 25 96
M  V30 93 1 27 81
M  V30 94 1 28 91
M  V30 95 1 29 63
M  V30 96 1 30 76
M  V30 97 1 32 75
M  V30 98 1 33 55
M  V30 99 1 34 78
M  V30 100 1 35 60
M  V30 101 1 37 72
M  V30 102 1 38 93
M  V30 103 1 39 85
M  V30 104 1 40 66
M  V30 105 1 42 51
M  V30 106 1 43 90
M  V30 107 1 44 57
M  V30 108 1 45 87
M  V30 END BOND
M  V30 END CTAB
M  END

$$$$
