
     RDKit          3D

  0  0  0  0  0  0  0  0  0  0999 V3000
M  V30 BEGIN CTAB
M  V30 COUNTS 99 108 0 0 0
M  V30 BEGIN ATOM
M  V30 1 Pd -1.0579 -0.9480 -5.3453 0
M  V30 2 Pb -0.3946 -1.6644 -5.1431 0
M  V30 3 Pb -1.7241 -0.2444 -5.6013 0
M  V30 4 Pb -0.3367 -0.2499 -5.3157 0
M  V30 5 Pb -1.7658 -1.6571 -5.3588 0
M  V30 6 Pd -3.1704 3.4817 1.5859 0
M  V30 7 Pb -2.2488 3.0955 1.6409 0
M  V30 8 Pb -2.8014 4.3536 1.2736 0
M  V30 9 Pb -3.5555 2.5993 1.8475 0
M  V30 10 Pb -4.0985 3.8208 1.3659 0
M  V30 11 Pd 3.7202 -3.5744 5.5171 0
M  V30 12 Pb 4.5889 -3.4961 5.0306 0
M  V30 13 Pb 2.8012 -3.5832 5.9138 0
M  V30 14 Pb 3.9358 -2.7294 5.9989 0
M  V30 15 Pb 3.5043 -4.3367 4.9082 0
M  V30 16 Pd 2.8192 2.8824 2.9199 0
M  V30 17 Pb 3.2996 2.5678 3.7360 0
M  V30 18 Pb 2.3134 3.1341 2.0900 0
M  V30 19 Pb 2.0256 3.0075 3.5151 0
M  V30 20 Pb 3.6134 2.6689 2.3547 0
M  V30 21 Pd -0.2137 -0.7465 3.8711 0
M  V30 22 Pb -0.1544 -0.0782 3.1301 0
M  V30 23 Pb -0.2042 -1.3970 4.6342 0
M  V30 24 Pb -0.2006 0.0493 4.4742 0
M  V30 25 Pb -0.2619 -1.5042 3.2170 0
M  V30 26 Pd 3.3420 1.3506 -2.2063 0
M  V30 27 Pb 2.6915 1.9552 -1.7367 0
M  V30 28 Pb 4.0178 0.7532 -2.6453 0
M  V30 29 Pb 2.7740 1.3470 -3.0368 0
M  V30 30 Pb 3.9527 1.4247 -1.4188 0
M  V30 31 Pd 4.9712 -3.7223 -1.4420 0
M  V30 32 Pb 4.3006 -3.9279 -2.1486 0
M  V30 33 Pb 5.3240 -2.9903 -2.0272 0
M  V30 34 Pb 4.5707 -4.4046 -0.8283 0
M  V30 35 Pb 5.6081 -3.5119 -0.7023 0
M  V30 36 Pd -4.4393 -2.9296 -1.6905 0
M  V30 37 Pb -3.6068 -3.3275 -1.3062 0
M  V30 38 Pb -5.2419 -2.4438 -2.0327 0
M  V30 39 Pb -4.6264 -2.5604 -0.7833 0
M  V30 40 Pb -4.2196 -3.2278 -2.6198 0
M  V30 41 Pd -6.0818 4.1043 -3.0704 0
M  V30 42 Pb -5.5478 4.9460 -3.0889 0
M  V30 43 Pb -5.7460 3.8434 -3.9731 0
M  V30 44 Pb -6.5658 3.2307 -3.0382 0
M  V30 45 Pb -6.2742 4.2763 -2.0921 0
M  V30 46 Ag 0.0847 -2.2233 -5.0149 0
M  V30 47 Fe 1.9325 -3.1538 -3.8570 0
M  V30 48 Ag 3.7843 -4.0439 -2.6739 0
M  V30 49 Ag -0.3298 -2.0484 2.7023 0
M  V30 50 Fe -1.5856 -2.8894 0.8684 0
M  V30 51 Ag -2.9897 -3.5379 -0.9355 0
M  V30 52 Ag 3.4009 -4.8262 4.3502 0
M  V30 53 Fe 3.7718 -5.0065 2.0110 0
M  V30 54 Ag 4.2787 -4.8577 -0.3050 0
M  V30 55 Ag -2.6513 4.9775 0.9004 0
M  V30 56 Fe -3.6051 5.7327 -1.1185 0
M  V30 57 Ag -5.0772 5.5018 -2.9448 0
M  V30 58 Ag 5.1804 -3.4130 4.5793 0
M  V30 59 Fe 5.7731 -3.3741 2.2820 0
M  V30 60 Ag 6.0081 -3.4043 -0.0790 0
M  V30 61 Ag 4.0974 -2.0393 6.2318 0
M  V30 62 Fe 3.9336 0.1944 5.4554 0
M  V30 63 Ag 3.5953 2.2657 4.3527 0
M  V30 64 Ag -3.8480 1.9255 1.9856 0
M  V30 65 Fe -4.3381 -0.1950 1.0440 0
M  V30 66 Ag -4.7200 -2.2234 -0.1234 0
M  V30 67 Ag -5.8119 -2.0090 -2.2484 0
M  V30 68 Fe -6.4521 0.2376 -2.6692 0
M  V30 69 Ag -6.8689 2.5456 -3.0349 0
M  V30 70 Ag -2.2138 0.2858 -5.8137 0
M  V30 71 Fe -3.8308 1.9421 -5.2790 0
M  V30 72 Ag -5.4259 3.5611 -4.5878 0
M  V30 73 Ba -1.5669 2.7849 1.5866 0
M  V30 74 Ga -0.8399 1.6191 2.1260 0
M  V30 75 Ba -0.0598 0.4709 2.6279 0
M  V30 76 Ba 1.4743 3.0112 4.0243 0
M  V30 77 Ga 0.6054 1.9078 4.4752 0
M  V30 78 Ba -0.1947 0.7162 4.8154 0
M  V30 79 Ba 1.9456 3.2918 1.4508 0
M  V30 80 Ga 2.0813 2.8557 0.0416 0
M  V30 81 Ba 2.2224 2.4156 -1.3658 0
M  V30 82 Ba -4.7921 4.0651 1.1629 0
M  V30 83 Ga -5.5671 4.2225 -0.1024 0
M  V30 84 Ba -6.3743 4.3947 -1.3455 0
M  V30 85 Ba 4.1948 2.4624 1.9318 0
M  V30 86 Ga 4.3208 1.9906 0.5420 0
M  V30 87 Ba 4.4309 1.5198 -0.8496 0
M  V30 88 Ba 0.1939 0.2856 -5.3186 0
M  V30 89 Ga 1.2809 0.7972 -4.4521 0
M  V30 90 Ba 2.3948 1.4053 -3.6883 0
M  V30 91 Ba -2.2665 -2.2184 -5.3564 0
M  V30 92 Ga -3.1679 -2.8156 -4.3502 0
M  V30 93 Ba -4.0648 -3.4014 -3.3334 0
M  V30 94 Ba 4.5531 0.3169 -2.9462 0
M  V30 95 Ga 5.0487 -1.0573 -2.7174 0
M  V30 96 Ba 5.5384 -2.4327 -2.4834 0
M  V30 97 Ba 2.0946 -3.5422 6.1659 0
M  V30 98 Ga 0.9449 -2.7332 5.7094 0
M  V30 99 Ba -0.1592 -1.8939 5.1980 0
M  V30 END ATOM
M  V30 BEGIN BOND
M  V30 1 1 1 2
M  V30 2 1 1 3
M  V30 3 1 1 4
M  V30 4 1 1 5
M  V30 5 1 6 7
M  V30 6 1 6 8
M  V30 7 1 6 9
M  V30 8 1 6 10
M  V30 9 1 11 12
M  V30 10 1 11 13
M  V30 11 1 11 14
M  V30 12 1 11 15
M  V30 13 1 16 17
M  V30 14 1 16 18
M  V30 15 1 16 19
M  V30 16 1 16 20
M  V30 17 1 21 22
M  V30 18 1 21 23
M  V30 19 1 21 24
M  V30 20 1 21 25
M  V30 21 1 26 27
M  V30 22 1 26 28
M  V30 23 1 26 29
M  V30 24 1 26 30
M  V30 25 1 31 32
M  V30 26 1 31 33
M  V30 27 1 31 34
M  V30 28 1 31 35
M  V30 29 1 36 37
M  V30 30 1 36 38
M  V30 31 1 36 39
M  V30 32 1 36 40
M  V30 33 1 41 42
M  V30 34 1 41 43
M  V30 35 1 41 44
M  V30 36 1 41 45
M  V30 37 1 46 47
M  V30 38 1 47 48
M  V30 39 1 49 50
M  V30 40 1 50 51
M  V30 41 1 52 53
M  V30 42 1 53 54
M  V30 43 1 55 56
M  V30 44 1 56 57
M  V30 45 1 58 59
M  V30 46 1 59 60
M  V30 47 1 61 62
M  V30 48 1 62 63
M  V30 49 1 64 65
M  V30 50 1 65 66
M  V30 51 1 67 68
M  V30 52 1 68 69
M  V30 53 1 70 71
M  V30 54 1 71 72
M  V30 55 1 73 74
M  V30 56 1 74 75
M  V30 57 1 76 77
M  V30 58 1 77 78
M  V30 59 1 79 80
M  V30 60 1 80 81
M  V30 61 1 82 83
M  V30 62 1 83 84
M  V30 63 1 85 86
M  V30 64 1 86 87
M  V30 65 1 88 89
M  V30 66 1 89 90
M  V30 67 1 91 92
M  V30 68 1 92 93
M  V30 69 1 94 95
M  V30 70 1 95 96
M  V30 71 1 97 98
M  V30 72 1 98 99
M  V30 73 1 2 46
M  V30 74 1 3 70
M  V30 75 1 4 88
M  V30 76 1 5 91
M  V30 77 1 7 73
M  V30 78 1 8 55
M  V30 79 1 9 64
M  V30 80 1 10 82
M  V30 81 1 12 58
M  V30 82 1 13 97
M  V30 83 1 14 61
M  V30 84 1 15 52
M  V30 85 1 17 63
M  V30 86 1 18 79
M  V30 87 1 19 76
M  V30 88 1 20 85
M  V30 89 1 22 75
M  V30 90 1 23 99
M  V30 91 1 24 78
M  V30 92 1 25 49
M  V30 93 1 27 81
M  V30 94 1 28 94
M  V30 95 1 29 90
M  V30 96 1 30 87
M  V30 97 1 32 48
M  V30 98 1 33 96
M  V30 99 1 34 54
M  V30 100 1 35 60
M  V30 101 1 37 51
M  V30 102 1 38 67
M  V30 103 1 39 66
M  V30 104 1 40 93
M  V30 105 1 42 57
M  V30 106 1 43 72
M  V30 107 1 44 69
M  V30 108 1 45 84
M  V30 END BOND
M  V30 END CTAB
M  END

$$$$
