
     RDKit          3D

  0  0  0  0  0  0  0  0  0  0999 V3000
M  V30 BEGIN CTAB
M  V30 COUNTS 99 108 0 0 0
M  V30 BEGIN ATOM
M  V30 1 Pd 5.4675 -1.8490 0.5457 0
M  V30 2 Pb 5.2926 -2.0249 1.5135 0
M  V30 3 Pb 5.5705 -1.8314 -0.4673 0
M  V30 4 Pb 6.2273 -2.4869 0.5949 0
M  V30 5 Pb 4.7316 -1.1643 0.5583 0
M  V30 6 Pd 4.9705 -5.4657 -3.8494 0
M  V30 7 Pb 4.1524 -5.1675 -4.3351 0
M  V30 8 Pb 5.7898 -5.7904 -3.3904 0
M  V30 9 Pb 5.2593 -4.5032 -3.6834 0
M  V30 10 Pb 4.5861 -6.3896 -3.8251 0
M  V30 11 Pd -0.1909 4.7532 3.5914 0
M  V30 12 Pb -0.6785 4.0722 4.1378 0
M  V30 13 Pb 0.2869 5.3337 2.9354 0
M  V30 14 Pb -0.8068 5.4843 3.8797 0
M  V30 15 Pb 0.4274 4.0261 3.3109 0
M  V30 16 Pd -5.3761 6.0454 2.5738 0
M  V30 17 Pb -6.1197 5.7057 2.0146 0
M  V30 18 Pb -5.5521 5.2726 3.1813 0
M  V30 19 Pb -5.1031 6.6176 1.7971 0
M  V30 20 Pb -4.6384 6.4042 3.1442 0
M  V30 21 Pd 0.9906 -2.7793 2.1350 0
M  V30 22 Pb 0.2235 -2.4828 1.5644 0
M  V30 23 Pb 0.7350 -3.7475 2.0482 0
M  V30 24 Pb 1.2888 -1.8309 2.1853 0
M  V30 25 Pb 1.7865 -2.9987 2.6975 0
M  V30 26 Pd 0.5285 -6.0474 -2.0121 0
M  V30 27 Pb 0.6585 -5.7545 -2.9557 0
M  V30 28 Pb -0.0005 -5.2190 -1.8655 0
M  V30 29 Pb 1.1168 -6.8361 -2.2068 0
M  V30 30 Pb 0.4326 -6.2667 -1.0393 0
M  V30 31 Pd -3.5316 0.9617 1.8985 0
M  V30 32 Pb -2.8591 0.3299 1.4979 0
M  V30 33 Pb -4.0365 0.7603 1.0474 0
M  V30 34 Pb -3.0102 1.1359 2.7396 0
M  V30 35 Pb -4.2465 1.5187 2.3459 0
M  V30 36 Pd 1.2484 1.6099 -1.8812 0
M  V30 37 Pb 0.7225 1.8934 -2.6817 0
M  V30 38 Pb 1.6106 2.5343 -1.7660 0
M  V30 39 Pb 1.7571 1.3164 -1.0685 0
M  V30 40 Pb 0.7621 0.7404 -1.8915 0
M  V30 41 Pd -4.0837 2.8721 -3.0929 0
M  V30 42 Pb -3.9761 3.8690 -3.1012 0
M  V30 43 Pb -5.0025 3.0156 -2.7517 0
M  V30 44 Pb -4.2067 1.9178 -2.8214 0
M  V30 45 Pb -3.1770 2.7380 -3.4973 0
M  V30 46 Ag -4.8857 6.8754 1.1229 0
M  V30 47 Fe -4.3662 5.9553 -1.0106 0
M  V30 48 Ag -3.9524 4.6018 -2.9252 0
M  V30 49 Ag 6.7463 -3.0105 0.5370 0
M  V30 50 Fe 7.0387 -4.7356 -1.0328 0
M  V30 51 Ag 6.3720 -5.9150 -2.9533 0
M  V30 52 Ag -0.3423 -4.5616 -1.8006 0
M  V30 53 Fe -0.0230 -2.2136 -1.8180 0
M  V30 54 Ag 0.3361 0.1287 -1.8456 0
M  V30 55 Ag 0.8854 3.4787 3.0980 0
M  V30 56 Fe 1.2175 1.1746 2.6566 0
M  V30 57 Ag 1.5429 -1.1307 2.2167 0
M  V30 58 Ag -6.6001 5.4131 1.5363 0
M  V30 59 Fe -6.4617 4.2437 -0.5053 0
M  V30 60 Ag -5.6556 3.1644 -2.4395 0
M  V30 61 Ag 0.6675 5.5963 2.3485 0
M  V30 62 Fe 1.3727 4.6624 0.2855 0
M  V30 63 Ag 1.7848 3.2335 -1.5624 0
M  V30 64 Ba -1.2722 6.0250 4.1058 0
M  V30 65 Ga -2.6818 6.3578 3.8355 0
M  V30 66 Ba -4.0912 6.6926 3.5670 0
M  V30 67 Ba 0.3172 2.0814 -3.2830 0
M  V30 68 Ga -1.1059 2.3761 -3.5393 0
M  V30 69 Ba -2.5163 2.6777 -3.8514 0
M  V30 70 Ba 4.2334 -7.0434 -3.7100 0
M  V30 71 Ga 2.9174 -7.2806 -3.0769 0
M  V30 72 Ba 1.5897 -7.3781 -2.4312 0
M  V30 73 Ba 5.6618 -1.8601 -1.2304 0
M  V30 74 Ga 5.5417 -2.8504 -2.3502 0
M  V30 75 Ba 5.4484 -3.7739 -3.5281 0
M  V30 76 Ba -4.3092 0.4997 0.3861 0
M  V30 77 Ga -4.3458 0.8836 -1.0489 0
M  V30 78 Ba -4.3915 1.2716 -2.4826 0
M  V30 79 Ba 0.5668 -4.4803 1.9765 0
M  V30 80 Ga 0.4563 -5.4323 0.8480 0
M  V30 81 Ba 0.3513 -6.3641 -0.2977 0
M  V30 82 Ba 4.2045 -0.6383 0.6840 0
M  V30 83 Ga 3.1736 0.2068 0.0419 0
M  V30 84 Ba 2.1094 1.1185 -0.4337 0
M  V30 85 Ba 3.5117 -5.0055 -4.6832 0
M  V30 86 Ga 2.1304 -5.2194 -4.2305 0
M  V30 87 Ba 0.8146 -5.4913 -3.6363 0
M  V30 88 Ba -1.0089 3.4883 4.4752 0
M  V30 89 Ga -1.8527 2.3923 3.9494 0
M  V30 90 Ba -2.6930 1.3030 3.4043 0
M  V30 91 Ba -0.3116 -2.2089 1.1137 0
M  V30 92 Ga -1.3756 -1.1819 1.1815 0
M  V30 93 Ba -2.4681 -0.1862 1.1064 0
M  V30 94 Ba 5.1053 -2.2481 2.2041 0
M  V30 95 Ga 3.7903 -2.6704 2.7199 0
M  V30 96 Ba 2.4182 -3.0568 3.0965 0
M  V30 97 Ba -5.6887 4.6075 3.5025 0
M  V30 98 Ga -5.2009 3.2505 3.1484 0
M  V30 99 Ba -4.7330 1.8841 2.8040 0
M  V30 END ATOM
M  V30 BEGIN BOND
M  V30 1 1 1 2
M  V30 2 1 1 3
M  V30 3 1 1 4
M  V30 4 1 1 5
M  V30 5 1 6 7
M  V30 6 1 6 8
M  V30 7 1 6 9
M  V30 8 1 6 10
M  V30 9 1 11 12
M  V30 10 1 11 13
M  V30 11 1 11 14
M  V30 12 1 11 15
M  V30 13 1 16 17
M  V30 14 1 16 18
M  V30 15 1 16 19
M  V30 16 1 16 20
M  V30 17 1 21 22
M  V30 18 1 21 23
M  V30 19 1 21 24
M  V30 20 1 21 25
M  V30 21 1 26 27
M  V30 22 1 26 28
M  V30 23 1 26 29
M  V30 24 1 26 30
M  V30 25 1 31 32
M  V30 26 1 31 33
M  V30 27 1 31 34
M  V30 28 1 31 35
M  V30 29 1 36 37
M  V30 30 1 36 38
M  V30 31 1 36 39
M  V30 32 1 36 40
M  V30 33 1 41 42
M  V30 34 1 41 43
M  V30 35 1 41 44
M  V30 36 1 41 45
M  V30 37 1 46 47
M  V30 38 1 47 48
M  V30 39 1 49 50
M  V30 40 1 50 51
M  V30 41 1 52 53
M  V30 42 1 53 54
M  V30 43 1 55 56
M  V30 44 1 56 57
M  V30 45 1 58 59
M  V30 46 1 59 60
M  V30 47 1 61 62
M  V30 48 1 62 63
M  V30 49 1 64 65
M  V30 50 1 65 66
M  V30 51 1 67 68
M  V30 52 1 68 69
M  V30 53 1 70 71
M  V30 54 1 71 72
M  V30 55 1 73 74
M  V30 56 1 74 75
M  V30 57 1 76 77
M  V30 58 1 77 78
M  V30 59 1 79 80
M  V30 60 1 80 81
M  V30 61 1 82 83
M  V30 62 1 83 84
M  V30 63 1 85 86
M  V30 64 1 86 87
M  V30 65 1 88 89
M  V30 66 1 89 90
M  V30 67 1 91 92
M  V30 68 1 92 93
M  V30 69 1 94 95
M  V30 70 1 95 96
M  V30 71 1 97 98
M  V30 72 1 98 99
M  V30 73 1 2 94
M  V30 74 1 3 73
M  V30 75 1 4 49
M  V30 76 1 5 82
M  V30 77 1 7 85
M  V30 78 1 8 51
M  V30 79 1 9 75
M  V30 80 1 10 70
M  V30 81 1 12 88
M  V30 82 1 13 61
M  V30 83 1 14 64
M  V30 84 1 15 55
M  V30 85 1 17 58
M  V30 86 1 18 97
M  V30 87 1 19 46
M  V30 88 1 20 66
M  V30 89 1 22 91
M  V30 90 1 23 79
M  V30 91 1 24 57
M  V30 92 1 25 96
M  V30 93 1 27 87
M  V30 94 1 28 52
M  V30 95 1 29 72
M  V30 96 1 30 81
M  V30 97 1 32 93
M  V30 98 1 33 76
M  V30 99 1 34 90
M  V30 100 1 35 99
M  V30 101 1 37 67
M  V30 102 1 38 63
M  V30 103 1 39 84
M  V30 104 1 40 54
M  V30 105 1 42 48
M  V30 106 1 43 60
M  V30 107 1 44 78
M  V30 108 1 45 69
M  V30 END BOND
M  V30 END CTAB
M  END

$$$$
