
     RDKit          3D

  0  0  0  0  0  0  0  0  0  0999 V3000
M  V30 BEGIN CTAB
M  V30 COUNTS 99 108 0 0 0
M  V30 BEGIN ATOM
M  V30 1 Pd 0.4435 3.6652 -1.5064 0
M  V30 2 Pb -0.1485 4.4048 -1.8304 0
M  V30 3 Pb 1.0206 2.9438 -1.1189 0
M  V30 4 Pb 1.0985 4.3359 -1.1611 0
M  V30 5 Pb -0.2235 2.9854 -1.8182 0
M  V30 6 Pd 6.1977 -3.9651 -2.6921 0
M  V30 7 Pb 5.6447 -4.5580 -2.1054 0
M  V30 8 Pb 6.5736 -3.4755 -1.9036 0
M  V30 9 Pb 5.7360 -4.3652 -3.4814 0
M  V30 10 Pb 6.6913 -3.3284 -3.2830 0
M  V30 11 Pd -6.0833 -0.7057 2.8535 0
M  V30 12 Pb -6.2151 -0.1679 2.0222 0
M  V30 13 Pb -6.0474 -1.5525 2.3287 0
M  V30 14 Pb -5.8764 -1.2409 3.6722 0
M  V30 15 Pb -6.0426 0.1633 3.3478 0
M  V30 16 Pd -1.4236 -1.9416 4.5211 0
M  V30 17 Pb -2.2986 -2.2871 4.8615 0
M  V30 18 Pb -1.6847 -1.0228 4.8140 0
M  V30 19 Pb -1.1372 -2.8609 4.2398 0
M  V30 20 Pb -0.5687 -1.5376 4.1919 0
M  V30 21 Pd -0.9406 -5.4517 -0.0059 0
M  V30 22 Pb 0.0311 -5.6667 -0.1290 0
M  V30 23 Pb -1.9102 -5.2543 0.1282 0
M  V30 24 Pb -0.7760 -5.3662 0.9803 0
M  V30 25 Pb -1.1365 -5.5703 -0.9825 0
M  V30 26 Pd 0.7346 4.9273 3.2241 0
M  V30 27 Pb 0.0628 4.5265 3.8438 0
M  V30 28 Pb 0.2371 5.7938 3.2074 0
M  V30 29 Pb 1.3719 5.2892 2.5464 0
M  V30 30 Pb 1.1747 4.0278 3.1966 0
M  V30 31 Pd -3.6882 5.7890 0.8210 0
M  V30 32 Pb -3.2570 6.0554 -0.0421 0
M  V30 33 Pb -3.1283 6.4477 1.3244 0
M  V30 34 Pb -4.0906 5.4524 1.6736 0
M  V30 35 Pb -4.2355 5.0977 0.3517 0
M  V30 36 Pd -0.4419 -2.8797 -4.9426 0
M  V30 37 Pb -0.9066 -3.6912 -4.5877 0
M  V30 38 Pb 0.0627 -2.0695 -5.2361 0
M  V30 39 Pb 0.2770 -3.4661 -5.3123 0
M  V30 40 Pb -1.0853 -2.2524 -4.5075 0
M  V30 41 Pd 5.2263 0.6349 -2.3187 0
M  V30 42 Pb 5.8035 0.2386 -1.6037 0
M  V30 43 Pb 4.5072 0.8304 -1.6498 0
M  V30 44 Pb 4.6117 0.8931 -3.0604 0
M  V30 45 Pb 5.9167 0.3607 -2.9862 0
M  V30 46 Ag 5.1870 -4.9936 -1.6997 0
M  V30 47 Fe 2.9758 -5.4162 -0.9359 0
M  V30 48 Ag 0.7630 -5.8363 -0.1755 0
M  V30 49 Ag -1.8281 -0.3167 5.0184 0
M  V30 50 Fe -1.2164 1.9571 4.7242 0
M  V30 51 Ag -0.4298 4.1470 4.2593 0
M  V30 52 Ag -5.9713 0.8553 3.6298 0
M  V30 53 Fe -5.2185 3.0417 3.0832 0
M  V30 54 Ag -4.3962 5.1185 2.2730 0
M  V30 55 Ag -6.2530 0.2899 1.4310 0
M  V30 56 Fe -5.5216 2.3971 0.6204 0
M  V30 57 Ag -4.6494 4.5367 0.0789 0
M  V30 58 Ag 0.0349 -1.1490 3.9695 0
M  V30 59 Fe 0.8438 1.0456 3.5444 0
M  V30 60 Ag 1.4299 3.3206 3.1813 0
M  V30 61 Ag 5.3028 -4.6072 -4.0410 0
M  V30 62 Fe 3.1129 -4.3554 -4.9181 0
M  V30 63 Ag 0.8694 -3.8731 -5.5208 0
M  V30 64 Ag -0.7243 2.4690 -2.0381 0
M  V30 65 Fe -1.1874 0.3886 -3.0878 0
M  V30 66 Ag -1.4717 -1.7078 -4.1685 0
M  V30 67 Ag 0.4570 -1.4496 -5.3785 0
M  V30 68 Fe 2.2700 -0.1234 -4.6164 0
M  V30 69 Ag 4.1217 0.9731 -3.6188 0
M  V30 70 Ag -5.9522 -2.1872 1.9469 0
M  V30 71 Fe -4.3426 -3.6860 1.0578 0
M  V30 72 Ag -2.6387 -5.1062 0.2166 0
M  V30 73 Ba -0.5999 4.9694 -2.0350 0
M  V30 74 Ga -1.7618 5.6104 -1.3871 0
M  V30 75 Ba -2.9179 6.2128 -0.6934 0
M  V30 76 Ba -1.3472 -5.6791 -1.6974 0
M  V30 77 Ga -1.2669 -4.9809 -2.9970 0
M  V30 78 Ba -1.2117 -4.3216 -4.3182 0
M  V30 79 Ba -0.9058 -3.5544 4.0595 0
M  V30 80 Ga -0.7947 -4.4138 2.8609 0
M  V30 81 Ba -0.6449 -5.3453 1.7219 0
M  V30 82 Ba 7.0200 -2.7933 -3.6910 0
M  V30 83 Ga 6.7825 -1.3408 -3.6429 0
M  V30 84 Ba 6.4194 0.0748 -3.4614 0
M  V30 85 Ba 6.8158 -3.0293 -1.3496 0
M  V30 86 Ga 6.5662 -1.5858 -1.1594 0
M  V30 87 Ba 6.2229 -0.1498 -1.1166 0
M  V30 88 Ba -5.6717 -1.6759 4.2477 0
M  V30 89 Ga -4.3402 -2.1054 4.7164 0
M  V30 90 Ba -2.9738 -2.4869 5.1216 0
M  V30 91 Ba 1.5828 4.8163 -0.8523 0
M  V30 92 Ga 1.7483 5.2210 0.5537 0
M  V30 93 Ba 1.8049 5.5393 1.9901 0
M  V30 94 Ba 1.4475 2.4303 -0.7732 0
M  V30 95 Ga 2.7098 1.6972 -0.9990 0
M  V30 96 Ba 3.9602 0.9239 -1.1431 0
M  V30 97 Ba -0.1639 6.4244 3.1521 0
M  V30 98 Ga -1.4287 6.7104 2.4498 0
M  V30 99 Ba -2.6952 6.9137 1.7221 0
M  V30 END ATOM
M  V30 BEGIN BOND
M  V30 1 1 1 2
M  V30 2 1 1 3
M  V30 3 1 1 4
M  V30 4 1 1 5
M  V30 5 1 6 7
M  V30 6 1 6 8
M  V30 7 1 6 9
M  V30 8 1 6 10
M  V30 9 1 11 12
M  V30 10 1 11 13
M  V30 11 1 11 14
M  V30 12 1 11 15
M  V30 13 1 16 17
M  V30 14 1 16 18
M  V30 15 1 16 19
M  V30 16 1 16 20
M  V30 17 1 21 22
M  V30 18 1 21 23
M  V30 19 1 21 24
M  V30 20 1 21 25
M  V30 21 1 26 27
M  V30 22 1 26 28
M  V30 23 1 26 29
M  V30 24 1 26 30
M  V30 25 1 31 32
M  V30 26 1 31 33
M  V30 27 1 31 34
M  V30 28 1 31 35
M  V30 29 1 36 37
M  V30 30 1 36 38
M  V30 31 1 36 39
M  V30 32 1 36 40
M  V30 33 1 41 42
M  V30 34 1 41 43
M  V30 35 1 41 44
M  V30 36 1 41 45
M  V30 37 1 46 47
M  V30 38 1 47 48
M  V30 39 1 49 50
M  V30 40 1 50 51
M  V30 41 1 52 53
M  V30 42 1 53 54
M  V30 43 1 55 56
M  V30 44 1 56 57
M  V30 45 1 58 59
M  V30 46 1 59 60
M  V30 47 1 61 62
M  V30 48 1 62 63
M  V30 49 1 64 65
M  V30 50 1 65 66
M  V30 51 1 67 68
M  V30 52 1 68 69
M  V30 53 1 70 71
M  V30 54 1 71 72
M  V30 55 1 73 74
M  V30 56 1 74 75
M  V30 57 1 76 77
M  V30 58 1 77 78
M  V30 59 1 79 80
M  V30 60 1 80 81
M  V30 61 1 82 83
M  V30 62 1 83 84
M  V30 63 1 85 86
M  V30 64 1 86 87
M  V30 65 1 88 89
M  V30 66 1 89 90
M  V30 67 1 91 92
M  V30 68 1 92 93
M  V30 69 1 94 95
M  V30 70 1 95 96
M  V30 71 1 97 98
M  V30 72 1 98 99
M  V30 73 1 2 73
M  V30 74 1 3 94
M  V30 75 1 4 91
M  V30 76 1 5 64
M  V30 77 1 7 46
M  V30 78 1 8 85
M  V30 79 1 9 61
M  V30 80 1 10 82
M  V30 81 1 12 55
M  V30 82 1 13 70
M  V30 83 1 14 88
M  V30 84 1 15 52
M  V30 85 1 17 90
M  V30 86 1 18 49
M  V30 87 1 19 79
M  V30 88 1 20 58
M  V30 89 1 22 48
M  V30 90 1 23 72
M  V30 91 1 24 81
M  V30 92 1 25 76
M  V30 93 1 27 51
M  V30 94 1 28 97
M  V30 95 1 29 93
M  V30 96 1 30 60
M  V30 97 1 32 75
M  V30 98 1 33 99
M  V30 99 1 34 54
M  V30 100 1 35 57
M  V30 101 1 37 78
M  V30 102 1 38 67
M  V30 103 1 39 63
M  V30 104 1 40 66
M  V30 105 1 42 87
M  V30 106 1 43 96
M  V30 107 1 44 69
M  V30 108 1 45 84
M  V30 END BOND
M  V30 END CTAB
M  END

$$$$
