
     RDKit          3D

  0  0  0  0  0  0  0  0  0  0999 V3000
M  V30 BEGIN CTAB
M  V30 COUNTS 99 108 0 0 0
M  V30 BEGIN ATOM
M  V30 1 Pd 2.2564 3.5989 -2.3556 0
M  V30 2 Pb 1.4585 4.0418 -2.7686 0
M  V30 3 Pb 2.0202 4.0708 -1.5068 0
M  V30 4 Pb 2.5462 3.1879 -3.2242 0
M  V30 5 Pb 3.0193 3.1473 -1.8932 0
M  V30 6 Pd -0.5645 0.8236 9.1058 0
M  V30 7 Pb -1.1488 0.1967 8.5903 0
M  V30 8 Pb -1.1321 1.6042 8.8466 0
M  V30 9 Pb 0.1739 0.1579 9.1669 0
M  V30 10 Pb 0.0597 1.4691 9.5339 0
M  V30 11 Pd -4.4846 -2.3154 -1.7783 0
M  V30 12 Pb -4.4606 -1.9646 -2.7114 0
M  V30 13 Pb -4.5725 -2.6726 -0.8444 0
M  V30 14 Pb -4.6825 -3.2261 -2.1474 0
M  V30 15 Pb -4.2757 -1.3928 -1.4377 0
M  V30 16 Pd -1.6465 -5.7927 -4.6901 0
M  V30 17 Pb -2.5976 -5.8097 -4.3773 0
M  V30 18 Pb -1.9014 -5.4921 -5.6092 0
M  V30 19 Pb -1.3516 -6.0316 -3.7683 0
M  V30 20 Pb -0.6960 -5.7199 -4.9918 0
M  V30 21 Pd -1.5255 -3.7198 2.7886 0
M  V30 22 Pb -1.7999 -3.2267 3.6165 0
M  V30 23 Pb -2.4821 -3.7430 2.4958 0
M  V30 24 Pb -1.2703 -4.2931 2.0119 0
M  V30 25 Pb -0.5572 -3.6607 3.0324 0
M  V30 26 Pd 1.4934 -0.8828 -8.5919 0
M  V30 27 Pb 0.7530 -1.4878 -8.8836 0
M  V30 28 Pb 0.9493 -0.0833 -8.8287 0
M  V30 29 Pb 2.1586 -0.2752 -8.1588 0
M  V30 30 Pb 1.9509 -1.6945 -8.2343 0
M  V30 31 Pd -2.8539 2.2810 -4.1299 0
M  V30 32 Pb -2.3384 3.1008 -3.8761 0
M  V30 33 Pb -2.6298 2.4771 -5.0820 0
M  V30 34 Pb -3.0639 2.0433 -3.1768 0
M  V30 35 Pb -3.3255 1.4549 -4.4294 0
M  V30 36 Pd 4.7259 0.6049 4.2910 0
M  V30 37 Pb 4.3511 -0.2946 4.0669 0
M  V30 38 Pb 5.0815 1.5196 4.5070 0
M  V30 39 Pb 4.5324 0.3616 5.2440 0
M  V30 40 Pb 4.9044 0.8013 3.3260 0
M  V30 41 Pd 2.5857 5.3904 5.3690 0
M  V30 42 Pb 1.6229 5.4710 5.6383 0
M  V30 43 Pb 2.3359 5.5119 4.4090 0
M  V30 44 Pb 3.5335 5.1624 5.1435 0
M  V30 45 Pb 2.7921 5.2559 6.3333 0
M  V30 46 Ag -1.5746 -0.2497 8.1634 0
M  V30 47 Fe -1.7880 -1.5765 6.2035 0
M  V30 48 Ag -2.0438 -2.9109 4.2539 0
M  V30 49 Ag 0.1811 -3.6134 3.1581 0
M  V30 50 Fe 2.1201 -2.3002 3.5557 0
M  V30 51 Ag 4.0483 -0.9714 3.9535 0
M  V30 52 Ag -1.1255 -6.1690 -3.0697 0
M  V30 53 Fe -1.1008 -5.4697 -0.8026 0
M  V30 54 Ag -1.0785 -4.7643 1.4625 0
M  V30 55 Ag -1.9850 -5.2148 -6.3010 0
M  V30 56 Fe -1.0210 -3.6300 -7.7838 0
M  V30 57 Ag 0.1852 -1.9683 -8.9769 0
M  V30 58 Ag 0.5668 1.9778 9.7258 0
M  V30 59 Fe 1.8514 3.6312 8.6250 0
M  V30 60 Ag 2.8456 5.0989 7.0587 0
M  V30 61 Ag -1.3813 2.2482 8.5534 0
M  V30 62 Fe -0.4346 3.9716 7.2171 0
M  V30 63 Ag 0.9204 5.4191 5.9048 0
M  V30 64 Ag -0.0084 -5.5944 -5.2629 0
M  V30 65 Fe 1.2477 -4.0626 -6.5702 0
M  V30 66 Ag 2.1685 -2.3302 -7.9056 0
M  V30 67 Ag 0.8333 -0.1881 9.1020 0
M  V30 68 Fe 2.6635 -0.1583 7.5874 0
M  V30 69 Ag 4.3325 0.0782 5.9126 0
M  V30 70 Ag 2.8212 2.9036 -3.8660 0
M  V30 71 Fe 2.7190 1.5550 -5.8215 0
M  V30 72 Ag 2.5911 0.1989 -7.7702 0
M  V30 73 Ag 3.5700 2.8023 -1.5187 0
M  V30 74 Fe 4.3278 1.8722 0.5315 0
M  V30 75 Ag 5.0402 0.9549 2.6037 0
M  V30 76 Ag 1.8485 4.4752 -0.8994 0
M  V30 77 Fe 2.0102 4.9964 1.4114 0
M  V30 78 Ag 2.0987 5.6065 3.7045 0
M  V30 79 Ag 0.4951 0.5053 -8.8757 0
M  V30 80 Fe -1.0170 1.6813 -7.4813 0
M  V30 81 Ag -2.4197 2.5729 -5.7925 0
M  V30 82 Ba 0.8397 4.4013 -2.9997 0
M  V30 83 Ga -0.5418 4.0409 -3.3801 0
M  V30 84 Ba -1.9323 3.7235 -3.7662 0
M  V30 85 Ba -4.1164 -0.6938 -1.1990 0
M  V30 86 Ga -3.6719 0.5680 -1.8370 0
M  V30 87 Ba -3.2275 1.8319 -2.4710 0
M  V30 88 Ba -4.4745 -1.6990 -3.4097 0
M  V30 89 Ga -4.0646 -0.4366 -4.0441 0
M  V30 90 Ba -3.6525 0.8283 -4.6722 0
M  V30 91 Ba -4.8300 -3.8994 -2.4492 0
M  V30 92 Ga -4.0718 -4.8584 -3.2793 0
M  V30 93 Ba -3.2994 -5.8067 -4.1088 0
M  V30 94 Ba 5.3577 2.2163 4.6002 0
M  V30 95 Ga 4.8035 3.5715 4.8150 0
M  V30 96 Ba 4.2363 4.9209 5.0326 0
M  V30 97 Ba -4.6906 -2.9564 -0.1563 0
M  V30 98 Ga -3.9183 -3.3418 1.0434 0
M  V30 99 Ba -3.1979 -3.7436 2.2698 0
M  V30 END ATOM
M  V30 BEGIN BOND
M  V30 1 1 1 2
M  V30 2 1 1 3
M  V30 3 1 1 4
M  V30 4 1 1 5
M  V30 5 1 6 7
M  V30 6 1 6 8
M  V30 7 1 6 9
M  V30 8 1 6 10
M  V30 9 1 11 12
M  V30 10 1 11 13
M  V30 11 1 11 14
M  V30 12 1 11 15
M  V30 13 1 16 17
M  V30 14 1 16 18
M  V30 15 1 16 19
M  V30 16 1 16 20
M  V30 17 1 21 22
M  V30 18 1 21 23
M  V30 19 1 21 24
M  V30 20 1 21 25
M  V30 21 1 26 27
M  V30 22 1 26 28
M  V30 23 1 26 29
M  V30 24 1 26 30
M  V30 25 1 31 32
M  V30 26 1 31 33
M  V30 27 1 31 34
M  V30 28 1 31 35
M  V30 29 1 36 37
M  V30 30 1 36 38
M  V30 31 1 36 39
M  V30 32 1 36 40
M  V30 33 1 41 42
M  V30 34 1 41 43
M  V30 35 1 41 44
M  V30 36 1 41 45
M  V30 37 1 46 47
M  V30 38 1 47 48
M  V30 39 1 49 50
M  V30 40 1 50 51
M  V30 41 1 52 53
M  V30 42 1 53 54
M  V30 43 1 55 56
M  V30 44 1 56 57
M  V30 45 1 58 59
M  V30 46 1 59 60
M  V30 47 1 61 62
M  V30 48 1 62 63
M  V30 49 1 64 65
M  V30 50 1 65 66
M  V30 51 1 67 68
M  V30 52 1 68 69
M  V30 53 1 70 71
M  V30 54 1 71 72
M  V30 55 1 73 74
M  V30 56 1 74 75
M  V30 57 1 76 77
M  V30 58 1 77 78
M  V30 59 1 79 80
M  V30 60 1 80 81
M  V30 61 1 82 83
M  V30 62 1 83 84
M  V30 63 1 85 86
M  V30 64 1 86 87
M  V30 65 1 88 89
M  V30 66 1 89 90
M  V30 67 1 91 92
M  V30 68 1 92 93
M  V30 69 1 94 95
M  V30 70 1 95 96
M  V30 71 1 97 98
M  V30 72 1 98 99
M  V30 73 1 2 82
M  V30 74 1 3 76
M  V30 75 1 4 70
M  V30 76 1 5 73
M  V30 77 1 7 46
M  V30 78 1 8 61
M  V30 79 1 9 67
M  V30 80 1 10 58
M  V30 81 1 12 88
M  V30 82 1 13 97
M  V30 83 1 14 91
M  V30 84 1 15 85
M  V30 85 1 17 93
M  V30 86 1 18 55
M  V30 87 1 19 52
M  V30 88 1 20 64
M  V30 89 1 22 48
M  V30 90 1 23 99
M  V30 91 1 24 54
M  V30 92 1 25 49
M  V30 93 1 27 57
M  V30 94 1 28 79
M  V30 95 1 29 72
M  V30 96 1 30 66
M  V30 97 1 32 84
M  V30 98 1 33 81
M  V30 99 1 34 87
M  V30 100 1 35 90
M  V30 101 1 37 51
M  V30 102 1 38 94
M  V30 103 1 39 69
M  V30 104 1 40 75
M  V30 105 1 42 63
M  V30 106 1 43 78
M  V30 107 1 44 96
M  V30 108 1 45 60
M  V30 END BOND
M  V30 END CTAB
M  END

$$$$
