
     RDKit          3D

  0  0  0  0  0  0  0  0  0  0999 V3000
M  V30 BEGIN CTAB
M  V30 COUNTS 99 108 0 0 0
M  V30 BEGIN ATOM
M  V30 1 Pd -3.5232 1.6295 0.3673 0
M  V30 2 Pb -2.7291 1.3827 0.9241 0
M  V30 3 Pb -4.3282 1.8429 -0.1871 0
M  V30 4 Pb -3.0543 1.3268 -0.4627 0
M  V30 5 Pb -3.9895 1.9221 1.2032 0
M  V30 6 Pd -3.0498 -3.8264 -0.0725 0
M  V30 7 Pb -2.4306 -3.0427 0.0023 0
M  V30 8 Pb -3.6490 -4.6147 -0.1797 0
M  V30 9 Pb -2.9264 -4.0856 0.8876 0
M  V30 10 Pb -3.3383 -3.4934 -0.9893 0
M  V30 11 Pd 6.5262 0.6042 2.8400 0
M  V30 12 Pb 6.7803 1.5573 2.7081 0
M  V30 13 Pb 6.2644 -0.3522 2.9762 0
M  V30 14 Pb 7.2373 0.3247 2.1955 0
M  V30 15 Pb 5.7291 0.9145 3.3857 0
M  V30 16 Pd 6.5087 -0.1146 -4.3651 0
M  V30 17 Pb 7.2124 -0.2205 -3.6624 0
M  V30 18 Pb 5.7444 0.0359 -5.0110 0
M  V30 19 Pb 6.0494 -0.9257 -4.0052 0
M  V30 20 Pb 6.9026 0.7480 -4.6720 0
M  V30 21 Pd 2.2228 -2.2444 1.5107 0
M  V30 22 Pb 1.3940 -1.9372 1.0395 0
M  V30 23 Pb 3.0586 -2.5023 1.9947 0
M  V30 24 Pb 2.6408 -2.5303 0.6477 0
M  V30 25 Pb 1.7989 -1.9536 2.3661 0
M  V30 26 Pd 1.8086 3.0484 -4.9148 0
M  V30 27 Pb 2.3167 2.3387 -5.4252 0
M  V30 28 Pb 1.3533 3.7029 -4.3125 0
M  V30 29 Pb 1.0965 2.3933 -4.6670 0
M  V30 30 Pb 2.5448 3.6859 -5.1280 0
M  V30 31 Pd 1.5533 3.5104 2.2934 0
M  V30 32 Pb 0.8875 2.7630 2.3253 0
M  V30 33 Pb 1.0598 3.9663 1.5528 0
M  V30 34 Pb 2.1267 3.0186 2.9721 0
M  V30 35 Pb 2.2476 4.2218 2.2489 0
M  V30 36 Pd -4.5942 -1.2802 4.2402 0
M  V30 37 Pb -3.6520 -1.1361 4.5359 0
M  V30 38 Pb -5.5331 -1.3954 3.9104 0
M  V30 39 Pb -4.3458 -2.2437 4.1141 0
M  V30 40 Pb -4.7758 -0.2989 4.2675 0
M  V30 41 Pd -7.4874 -1.3449 -1.9883 0
M  V30 42 Pb -7.7936 -2.2918 -2.0266 0
M  V30 43 Pb -7.1990 -0.3859 -1.9463 0
M  V30 44 Pb -8.1245 -1.1912 -1.2390 0
M  V30 45 Pb -6.6550 -1.6065 -2.4989 0
M  V30 46 Ag 1.4321 -1.7273 2.9774 0
M  V30 47 Fe -0.7059 -1.3609 3.9378 0
M  V30 48 Ag -2.9287 -1.0648 4.7120 0
M  V30 49 Ag 5.6750 -1.4941 -3.6921 0
M  V30 50 Fe 4.3181 -2.1722 -1.8647 0
M  V30 51 Ag 2.9693 -2.7395 0.0059 0
M  V30 52 Ag -4.1971 -5.0910 -0.3261 0
M  V30 53 Fe -6.3269 -4.6120 -1.2007 0
M  V30 54 Ag -7.8780 -3.0265 -1.9820 0
M  V30 55 Ag 6.8172 2.2918 2.6138 0
M  V30 56 Fe 5.1121 3.9003 2.3722 0
M  V30 57 Ag 2.8730 4.6185 2.2239 0
M  V30 58 Ag 7.0042 1.4517 -4.8864 0
M  V30 59 Fe 5.3868 3.1378 -5.2168 0
M  V30 60 Ag 3.1964 4.0147 -5.2694 0
M  V30 61 Ag 7.7064 0.1395 1.6409 0
M  V30 62 Fe 7.8316 -0.1141 -0.7169 0
M  V30 63 Ag 7.6801 -0.2915 -3.0803 0
M  V30 64 Ag -2.7125 1.1043 -1.0924 0
M  V30 65 Fe -1.0875 1.4788 -2.7827 0
M  V30 66 Ag 0.5600 1.9261 -4.4330 0
M  V30 67 Ag -6.2293 -1.3889 3.6260 0
M  V30 68 Fe -7.5207 -1.2666 1.6371 0
M  V30 69 Ag -8.4236 -1.1666 -0.5560 0
M  V30 70 Ag 1.0155 4.1112 -3.7828 0
M  V30 71 Fe 0.7964 4.3161 -1.4273 0
M  V30 72 Ag 0.7668 4.2976 0.9471 0
M  V30 73 Ba -1.9786 -2.4422 -0.0022 0
M  V30 74 Ga -0.5944 -2.0923 0.3766 0
M  V30 75 Ba 0.7731 -1.6548 0.7236 0
M  V30 76 Ba -2.1581 1.1705 1.3629 0
M  V30 77 Ga -0.8703 1.7122 1.8405 0
M  V30 78 Ba 0.4302 2.1683 2.3698 0
M  V30 79 Ba 5.1690 0.1514 -5.4970 0
M  V30 80 Ga 3.9463 0.9955 -5.6105 0
M  V30 81 Ba 2.7081 1.8028 -5.7985 0
M  V30 82 Ba 5.1227 1.1515 3.7870 0
M  V30 83 Ga 3.8508 1.9085 3.5829 0
M  V30 84 Ba 2.5574 2.6504 3.4869 0
M  V30 85 Ba -3.5838 -3.2266 -1.6660 0
M  V30 86 Ga -4.7925 -2.5373 -2.2169 0
M  V30 87 Ba -5.9913 -1.8478 -2.7893 0
M  V30 88 Ba -2.9465 -4.2823 1.6142 0
M  V30 89 Ga -3.4969 -3.6241 2.8207 0
M  V30 90 Ba -4.0583 -2.9315 4.0025 0
M  V30 91 Ba -4.3141 2.1130 1.8528 0
M  V30 92 Ga -4.6318 1.3235 3.0569 0
M  V30 93 Ba -4.9035 0.4356 4.2021 0
M  V30 94 Ba -4.9240 1.9850 -0.6206 0
M  V30 95 Ga -5.9642 1.1552 -1.2617 0
M  V30 96 Ba -7.0122 0.3419 -1.9108 0
M  V30 97 Ba 6.0660 -1.0694 3.0777 0
M  V30 98 Ga 4.8857 -1.8800 2.7218 0
M  V30 99 Ba 3.6946 -2.6695 2.3545 0
M  V30 END ATOM
M  V30 BEGIN BOND
M  V30 1 1 1 2
M  V30 2 1 1 3
M  V30 3 1 1 4
M  V30 4 1 1 5
M  V30 5 1 6 7
M  V30 6 1 6 8
M  V30 7 1 6 9
M  V30 8 1 6 10
M  V30 9 1 11 12
M  V30 10 1 11 13
M  V30 11 1 11 14
M  V30 12 1 11 15
M  V30 13 1 16 17
M  V30 14 1 16 18
M  V30 15 1 16 19
M  V30 16 1 16 20
M  V30 17 1 21 22
M  V30 18 1 21 23
M  V30 19 1 21 24
M  V30 20 1 21 25
M  V30 21 1 26 27
M  V30 22 1 26 28
M  V30 23 1 26 29
M  V30 24 1 26 30
M  V30 25 1 31 32
M  V30 26 1 31 33
M  V30 27 1 31 34
M  V30 28 1 31 35
M  V30 29 1 36 37
M  V30 30 1 36 38
M  V30 31 1 36 39
M  V30 32 1 36 40
M  V30 33 1 41 42
M  V30 34 1 41 43
M  V30 35 1 41 44
M  V30 36 1 41 45
M  V30 37 1 46 47
M  V30 38 1 47 48
M  V30 39 1 49 50
M  V30 40 1 50 51
M  V30 41 1 52 53
M  V30 42 1 53 54
M  V30 43 1 55 56
M  V30 44 1 56 57
M  V30 45 1 58 59
M  V30 46 1 59 60
M  V30 47 1 61 62
M  V30 48 1 62 63
M  V30 49 1 64 65
M  V30 50 1 65 66
M  V30 51 1 67 68
M  V30 52 1 68 69
M  V30 53 1 70 71
M  V30 54 1 71 72
M  V30 55 1 73 74
M  V30 56 1 74 75
M  V30 57 1 76 77
M  V30 58 1 77 78
M  V30 59 1 79 80
M  V30 60 1 80 81
M  V30 61 1 82 83
M  V30 62 1 83 84
M  V30 63 1 85 86
M  V30 64 1 86 87
M  V30 65 1 88 89
M  V30 66 1 89 90
M  V30 67 1 91 92
M  V30 68 1 92 93
M  V30 69 1 94 95
M  V30 70 1 95 96
M  V30 71 1 97 98
M  V30 72 1 98 99
M  V30 73 1 2 76
M  V30 74 1 3 94
M  V30 75 1 4 64
M  V30 76 1 5 91
M  V30 77 1 7 73
M  V30 78 1 8 52
M  V30 79 1 9 88
M  V30 80 1 10 85
M  V30 81 1 12 55
M  V30 82 1 13 97
M  V30 83 1 14 61
M  V30 84 1 15 82
M  V30 85 1 17 63
M  V30 86 1 18 79
M  V30 87 1 19 49
M  V30 88 1 20 58
M  V30 89 1 22 75
M  V30 90 1 23 99
M  V30 91 1 24 51
M  V30 92 1 25 46
M  V30 93 1 27 81
M  V30 94 1 28 70
M  V30 95 1 29 66
M  V30 96 1 30 60
M  V30 97 1 32 78
M  V30 98 1 33 72
M  V30 99 1 34 84
M  V30 100 1 35 57
M  V30 101 1 37 48
M  V30 102 1 38 67
M  V30 103 1 39 90
M  V30 104 1 40 93
M  V30 105 1 42 54
M  V30 106 1 43 96
M  V30 107 1 44 69
M  V30 108 1 45 87
M  V30 END BOND
M  V30 END CTAB
M  END

$$$$
