
     RDKit          3D

  0  0  0  0  0  0  0  0  0  0999 V3000
M  V30 BEGIN CTAB
M  V30 COUNTS 99 108 0 0 0
M  V30 BEGIN ATOM
M  V30 1 Pd 3.0483 3.0077 -1.1425 0
M  V30 2 Pb 3.7497 3.3834 -0.5359 0
M  V30 3 Pb 2.3138 2.6549 -1.7248 0
M  V30 4 Pb 2.6560 3.9129 -1.3019 0
M  V30 5 Pb 3.3999 2.0939 -0.9310 0
M  V30 6 Pd 0.1884 -3.9453 -6.1550 0
M  V30 7 Pb -0.4243 -4.2961 -5.4451 0
M  V30 8 Pb 0.7705 -3.5678 -6.8753 0
M  V30 9 Pb 0.8750 -4.6515 -5.9578 0
M  V30 10 Pb -0.4679 -3.2107 -6.3430 0
M  V30 11 Pd -0.8221 -2.0670 6.0271 0
M  V30 12 Pb 0.1191 -1.9994 5.6835 0
M  V30 13 Pb -0.9560 -2.9949 5.6765 0
M  V30 14 Pb -1.7764 -2.0464 6.3174 0
M  V30 15 Pb -0.7064 -1.1391 6.3697 0
M  V30 16 Pd -6.4425 1.2086 3.1468 0
M  V30 17 Pb -6.3681 0.6953 3.9990 0
M  V30 18 Pb -6.4227 1.7382 2.2970 0
M  V30 19 Pb -6.4613 0.3282 2.6705 0
M  V30 20 Pb -6.3417 2.0814 3.6234 0
M  V30 21 Pd -2.2048 -4.9914 1.2759 0
M  V30 22 Pb -2.3371 -5.0180 0.2842 0
M  V30 23 Pb -2.0580 -5.0319 2.2670 0
M  V30 24 Pb -3.0834 -4.5161 1.3692 0
M  V30 25 Pb -1.3283 -5.4518 1.1454 0
M  V30 26 Pd -2.5682 6.9582 1.4952 0
M  V30 27 Pb -3.2633 6.4865 0.9500 0
M  V30 28 Pb -1.8288 7.3111 2.0670 0
M  V30 29 Pb -1.9426 7.0367 0.7202 0
M  V30 30 Pb -3.1607 6.7982 2.2837 0
M  V30 31 Pd 3.2392 3.6657 4.1673 0
M  V30 32 Pb 3.8975 3.8282 3.4306 0
M  V30 33 Pb 2.9545 4.6239 4.1435 0
M  V30 34 Pb 2.5678 3.4954 4.8824 0
M  V30 35 Pb 3.4214 2.6778 4.1770 0
M  V30 36 Pd 4.1960 -4.4209 -2.6012 0
M  V30 37 Pb 3.7398 -5.0330 -1.9577 0
M  V30 38 Pb 4.6197 -3.7550 -3.2101 0
M  V30 39 Pb 3.9198 -5.0115 -3.3624 0
M  V30 40 Pb 4.3801 -3.7654 -1.8718 0
M  V30 41 Pd 1.4040 0.6967 -6.2610 0
M  V30 42 Pb 1.6582 0.1323 -7.0434 0
M  V30 43 Pb 1.1321 1.1540 -5.4130 0
M  V30 44 Pb 2.3696 0.7183 -6.0241 0
M  V30 45 Pb 0.4453 0.5014 -6.4579 0
M  V30 46 Ag -0.9211 -4.5272 -4.9312 0
M  V30 47 Fe -1.6466 -4.7912 -2.6838 0
M  V30 48 Ag -2.4269 -5.0834 -0.4585 0
M  V30 49 Ag -0.6680 -5.7778 1.0104 0
M  V30 50 Fe 1.3753 -5.6846 -0.1928 0
M  V30 51 Ag 3.3662 -5.4525 -1.4633 0
M  V30 52 Ag -6.4319 -0.3595 2.3689 0
M  V30 53 Fe -5.0974 -2.2627 1.8675 0
M  V30 54 Ag -3.7455 -4.1566 1.3773 0
M  V30 55 Ag -6.3384 2.2069 1.7154 0
M  V30 56 Fe -5.1337 4.1364 1.0244 0
M  V30 57 Ag -3.7865 6.0543 0.6268 0
M  V30 58 Ag -0.5794 -0.4364 6.5843 0
M  V30 59 Fe 0.6796 1.5108 6.0990 0
M  V30 60 Ag 2.0578 3.3025 5.3904 0
M  V30 61 Ag 0.8095 -1.8357 5.4258 0
M  V30 62 Fe 2.2302 -0.0322 4.7931 0
M  V30 63 Ag 3.4594 1.9247 4.2177 0
M  V30 64 Ag -6.2033 2.7597 3.9104 0
M  V30 65 Fe -4.9705 4.7489 3.5113 0
M  V30 66 Ag -3.6260 6.5829 2.8298 0
M  V30 67 Ag -2.5018 -1.9576 6.4742 0
M  V30 68 Fe -4.4662 -0.8981 5.6730 0
M  V30 69 Ag -6.2251 0.2780 4.6023 0
M  V30 70 Ag 2.2885 4.5572 -1.4091 0
M  V30 71 Fe 0.4596 5.8887 -0.6892 0
M  V30 72 Ag -1.4117 7.0541 0.1921 0
M  V30 73 Ag 3.6738 1.4273 -0.7166 0
M  V30 74 Fe 4.0918 -0.8908 -1.0229 0
M  V30 75 Ag 4.4818 -3.2055 -1.3861 0
M  V30 76 Ag 4.8831 -3.1708 -3.5938 0
M  V30 77 Fe 4.1957 -1.2273 -4.7611 0
M  V30 78 Ag 3.0741 0.5498 -5.8539 0
M  V30 79 Ag -1.2164 7.4858 2.4616 0
M  V30 80 Fe 0.7694 6.5329 3.3483 0
M  V30 81 Ag 2.6541 5.3104 4.1171 0
M  V30 82 Ba 4.2703 3.6456 -0.0629 0
M  V30 83 Ga 4.3334 3.8081 1.4030 0
M  V30 84 Ba 4.3793 3.9637 2.8704 0
M  V30 85 Ba -0.9249 -2.6296 -6.4853 0
M  V30 86 Ga -0.6591 -1.1790 -6.5517 0
M  V30 87 Ba -0.2433 0.2367 -6.5834 0
M  V30 88 Ba 1.1713 -3.2303 -7.4119 0
M  V30 89 Ga 1.5443 -1.8130 -7.5617 0
M  V30 90 Ba 1.8394 -0.3700 -7.5668 0
M  V30 91 Ba 1.4086 -5.1679 -5.8241 0
M  V30 92 Ga 2.5376 -5.3065 -4.8771 0
M  V30 93 Ba 3.6643 -5.4387 -3.9266 0
M  V30 94 Ba 1.7126 2.4719 -2.1373 0
M  V30 95 Ga 1.3571 1.9438 -3.4700 0
M  V30 96 Ba 0.8688 1.4299 -4.7657 0
M  V30 97 Ba -1.1002 -3.6944 5.4445 0
M  V30 98 Ga -1.5045 -4.3716 4.1951 0
M  V30 99 Ba -1.9099 -5.1363 2.9977 0
M  V30 END ATOM
M  V30 BEGIN BOND
M  V30 1 1 1 2
M  V30 2 1 1 3
M  V30 3 1 1 4
M  V30 4 1 1 5
M  V30 5 1 6 7
M  V30 6 1 6 8
M  V30 7 1 6 9
M  V30 8 1 6 10
M  V30 9 1 11 12
M  V30 10 1 11 13
M  V30 11 1 11 14
M  V30 12 1 11 15
M  V30 13 1 16 17
M  V30 14 1 16 18
M  V30 15 1 16 19
M  V30 16 1 16 20
M  V30 17 1 21 22
M  V30 18 1 21 23
M  V30 19 1 21 24
M  V30 20 1 21 25
M  V30 21 1 26 27
M  V30 22 1 26 28
M  V30 23 1 26 29
M  V30 24 1 26 30
M  V30 25 1 31 32
M  V30 26 1 31 33
M  V30 27 1 31 34
M  V30 28 1 31 35
M  V30 29 1 36 37
M  V30 30 1 36 38
M  V30 31 1 36 39
M  V30 32 1 36 40
M  V30 33 1 41 42
M  V30 34 1 41 43
M  V30 35 1 41 44
M  V30 36 1 41 45
M  V30 37 1 46 47
M  V30 38 1 47 48
M  V30 39 1 49 50
M  V30 40 1 50 51
M  V30 41 1 52 53
M  V30 42 1 53 54
M  V30 43 1 55 56
M  V30 44 1 56 57
M  V30 45 1 58 59
M  V30 46 1 59 60
M  V30 47 1 61 62
M  V30 48 1 62 63
M  V30 49 1 64 65
M  V30 50 1 65 66
M  V30 51 1 67 68
M  V30 52 1 68 69
M  V30 53 1 70 71
M  V30 54 1 71 72
M  V30 55 1 73 74
M  V30 56 1 74 75
M  V30 57 1 76 77
M  V30 58 1 77 78
M  V30 59 1 79 80
M  V30 60 1 80 81
M  V30 61 1 82 83
M  V30 62 1 83 84
M  V30 63 1 85 86
M  V30 64 1 86 87
M  V30 65 1 88 89
M  V30 66 1 89 90
M  V30 67 1 91 92
M  V30 68 1 92 93
M  V30 69 1 94 95
M  V30 70 1 95 96
M  V30 71 1 97 98
M  V30 72 1 98 99
M  V30 73 1 2 82
M  V30 74 1 3 94
M  V30 75 1 4 70
M  V30 76 1 5 73
M  V30 77 1 7 46
M  V30 78 1 8 88
M  V30 79 1 9 91
M  V30 80 1 10 85
M  V30 81 1 12 61
M  V30 82 1 13 97
M  V30 83 1 14 67
M  V30 84 1 15 58
M  V30 85 1 17 69
M  V30 86 1 18 55
M  V30 87 1 19 52
M  V30 88 1 20 64
M  V30 89 1 22 48
M  V30 90 1 23 99
M  V30 91 1 24 54
M  V30 92 1 25 49
M  V30 93 1 27 57
M  V30 94 1 28 79
M  V30 95 1 29 72
M  V30 96 1 30 66
M  V30 97 1 32 84
M  V30 98 1 33 81
M  V30 99 1 34 60
M  V30 100 1 35 63
M  V30 101 1 37 51
M  V30 102 1 38 76
M  V30 103 1 39 93
M  V30 104 1 40 75
M  V30 105 1 42 90
M  V30 106 1 43 96
M  V30 107 1 44 78
M  V30 108 1 45 87
M  V30 END BOND
M  V30 END CTAB
M  END

$$$$
