
     RDKit          3D

  0  0  0  0  0  0  0  0  0  0999 V3000
M  V30 BEGIN CTAB
M  V30 COUNTS 99 108 0 0 0
M  V30 BEGIN ATOM
M  V30 1 Pd 1.1371 1.1912 4.3321 0
M  V30 2 Pb 1.5557 1.9281 3.7942 0
M  V30 3 Pb 0.5077 1.8389 4.7540 0
M  V30 4 Pb 1.8391 0.5437 4.0349 0
M  V30 5 Pb 0.6265 0.4666 4.7953 0
M  V30 6 Pd 4.9531 -5.0717 1.0859 0
M  V30 7 Pb 5.1186 -5.8336 0.4680 0
M  V30 8 Pb 3.9902 -5.3464 1.0910 0
M  V30 9 Pb 4.7895 -4.2748 1.6667 0
M  V30 10 Pb 5.8536 -4.7148 0.8470 0
M  V30 11 Pd 2.0799 -5.2375 -4.8279 0
M  V30 12 Pb 1.4805 -4.4591 -5.0020 0
M  V30 13 Pb 1.5203 -5.5217 -4.0468 0
M  V30 14 Pb 2.7815 -4.8501 -5.4234 0
M  V30 15 Pb 2.7008 -5.9788 -4.5963 0
M  V30 16 Pd 1.8384 1.9773 -0.9643 0
M  V30 17 Pb 2.3172 1.2565 -0.4634 0
M  V30 18 Pb 1.4038 2.7003 -1.5123 0
M  V30 19 Pb 1.7622 1.3637 -1.7511 0
M  V30 20 Pb 1.9501 2.5700 -0.1620 0
M  V30 21 Pd -3.3992 -0.4597 -2.0931 0
M  V30 22 Pb -3.0238 -1.0891 -1.4094 0
M  V30 23 Pb -3.7392 0.2329 -2.7225 0
M  V30 24 Pb -2.7225 -0.7385 -2.7727 0
M  V30 25 Pb -4.1160 -0.1968 -1.4549 0
M  V30 26 Pd 4.8838 -2.0614 -2.6399 0
M  V30 27 Pb 4.0446 -1.6547 -3.0035 0
M  V30 28 Pb 4.6392 -1.7209 -1.7312 0
M  V30 29 Pb 5.0797 -2.4181 -3.5587 0
M  V30 30 Pb 5.7218 -2.4471 -2.2416 0
M  V30 31 Pd -4.9573 5.0251 3.6949 0
M  V30 32 Pb -4.5207 5.9021 3.5384 0
M  V30 33 Pb -5.3547 4.1331 3.9202 0
M  V30 34 Pb -5.2976 5.0282 2.7349 0
M  V30 35 Pb -4.4463 4.9559 4.5424 0
M  V30 36 Pd -3.7501 -0.3766 3.2102 0
M  V30 37 Pb -4.3213 0.2021 3.7941 0
M  V30 38 Pb -4.3904 -0.1569 2.4811 0
M  V30 39 Pb -3.1068 -0.6048 3.9472 0
M  V30 40 Pb -3.2374 -0.9647 2.5791 0
M  V30 41 Pd -2.9197 4.8881 -1.7853 0
M  V30 42 Pb -2.0441 4.7849 -2.2599 0
M  V30 43 Pb -3.7638 4.9501 -1.2118 0
M  V30 44 Pb -2.5360 5.6652 -1.3033 0
M  V30 45 Pb -3.3388 4.1874 -2.3652 0
M  V30 46 Ag -4.1219 6.4832 3.3204 0
M  V30 47 Fe -2.9858 6.8546 1.2977 0
M  V30 48 Ag -2.3517 6.2417 -0.8804 0
M  V30 49 Ag 0.0468 2.2924 5.1288 0
M  V30 50 Fe -1.9274 3.5966 5.2430 0
M  V30 51 Ag -3.9441 4.8260 5.0723 0
M  V30 52 Ag 1.0459 -3.8582 -5.0974 0
M  V30 53 Fe -0.6025 -2.4002 -4.2093 0
M  V30 54 Ag -2.2500 -0.9442 -3.3163 0
M  V30 55 Ag 3.2883 -5.5364 0.8985 0
M  V30 56 Fe 2.0440 -5.6936 -1.1227 0
M  V30 57 Ag 1.2485 -5.6875 -3.3646 0
M  V30 58 Ag 5.1792 -6.3436 -0.0694 0
M  V30 59 Fe 4.3247 -6.6831 -2.2471 0
M  V30 60 Ag 3.1723 -6.4701 -4.3000 0
M  V30 61 Ag 2.4091 0.0756 3.8966 0
M  V30 62 Fe 3.4812 -1.8168 2.9429 0
M  V30 63 Ag 4.7141 -3.6546 2.0809 0
M  V30 64 Ba 2.7031 0.7208 -0.1077 0
M  V30 65 Ga 3.5702 -0.3808 -0.5675 0
M  V30 66 Ba 4.4330 -1.4751 -1.0524 0
M  V30 67 Ba 1.1189 3.2137 -1.9886 0
M  V30 68 Ga -0.1371 3.9512 -2.2526 0
M  V30 69 Ba -1.3622 4.7194 -2.5691 0
M  V30 70 Ba 0.1743 -0.0386 5.1175 0
M  V30 71 Ga -1.2178 -0.4349 4.8138 0
M  V30 72 Ba -2.6105 -0.8038 4.4796 0
M  V30 73 Ba 1.7225 0.8950 -2.3363 0
M  V30 74 Ga 2.5605 -0.2243 -2.8097 0
M  V30 75 Ba 3.4142 -1.3399 -3.2632 0
M  V30 76 Ba 6.4622 -4.4193 0.5262 0
M  V30 77 Ga 6.4727 -3.5582 -0.6755 0
M  V30 78 Ba 6.3294 -2.7091 -1.8777 0
M  V30 79 Ba -5.6071 3.4791 4.1951 0
M  V30 80 Ga -5.2017 2.0576 4.1611 0
M  V30 81 Ba -4.8281 0.6269 4.1521 0
M  V30 82 Ba -3.9783 0.7949 -3.1504 0
M  V30 83 Ga -3.8244 2.2528 -3.0032 0
M  V30 84 Ba -3.6646 3.7090 -2.8448 0
M  V30 85 Ba 1.8157 2.4941 3.3689 0
M  V30 86 Ga 1.9472 2.7365 1.9140 0
M  V30 87 Ba 2.0784 2.9781 0.4589 0
M  V30 88 Ba -5.5147 5.0389 1.9967 0
M  V30 89 Ga -4.9029 5.0093 0.6264 0
M  V30 90 Ba -4.4102 4.9865 -0.7911 0
M  V30 91 Ba -4.6639 -0.0062 -0.9872 0
M  V30 92 Ga -4.7870 0.0130 0.4752 0
M  V30 93 Ba -4.8719 0.0187 1.9405 0
M  V30 94 Ba -2.7351 -1.5215 -0.8652 0
M  V30 95 Ga -2.8023 -1.4777 0.6121 0
M  V30 96 Ba -2.8838 -1.4137 2.0879 0
M  V30 97 Ba 3.3773 -4.5208 -5.7372 0
M  V30 98 Ga 4.3104 -3.5907 -5.0651 0
M  V30 99 Ba 5.1538 -2.6764 -4.2643 0
M  V30 END ATOM
M  V30 BEGIN BOND
M  V30 1 1 1 2
M  V30 2 1 1 3
M  V30 3 1 1 4
M  V30 4 1 1 5
M  V30 5 1 6 7
M  V30 6 1 6 8
M  V30 7 1 6 9
M  V30 8 1 6 10
M  V30 9 1 11 12
M  V30 10 1 11 13
M  V30 11 1 11 14
M  V30 12 1 11 15
M  V30 13 1 16 17
M  V30 14 1 16 18
M  V30 15 1 16 19
M  V30 16 1 16 20
M  V30 17 1 21 22
M  V30 18 1 21 23
M  V30 19 1 21 24
M  V30 20 1 21 25
M  V30 21 1 26 27
M  V30 22 1 26 28
M  V30 23 1 26 29
M  V30 24 1 26 30
M  V30 25 1 31 32
M  V30 26 1 31 33
M  V30 27 1 31 34
M  V30 28 1 31 35
M  V30 29 1 36 37
M  V30 30 1 36 38
M  V30 31 1 36 39
M  V30 32 1 36 40
M  V30 33 1 41 42
M  V30 34 1 41 43
M  V30 35 1 41 44
M  V30 36 1 41 45
M  V30 37 1 46 47
M  V30 38 1 47 48
M  V30 39 1 49 50
M  V30 40 1 50 51
M  V30 41 1 52 53
M  V30 42 1 53 54
M  V30 43 1 55 56
M  V30 44 1 56 57
M  V30 45 1 58 59
M  V30 46 1 59 60
M  V30 47 1 61 62
M  V30 48 1 62 63
M  V30 49 1 64 65
M  V30 50 1 65 66
M  V30 51 1 67 68
M  V30 52 1 68 69
M  V30 53 1 70 71
M  V30 54 1 71 72
M  V30 55 1 73 74
M  V30 56 1 74 75
M  V30 57 1 76 77
M  V30 58 1 77 78
M  V30 59 1 79 80
M  V30 60 1 80 81
M  V30 61 1 82 83
M  V30 62 1 83 84
M  V30 63 1 85 86
M  V30 64 1 86 87
M  V30 65 1 88 89
M  V30 66 1 89 90
M  V30 67 1 91 92
M  V30 68 1 92 93
M  V30 69 1 94 95
M  V30 70 1 95 96
M  V30 71 1 97 98
M  V30 72 1 98 99
M  V30 73 1 2 85
M  V30 74 1 3 49
M  V30 75 1 4 61
M  V30 76 1 5 70
M  V30 77 1 7 58
M  V30 78 1 8 55
M  V30 79 1 9 63
M  V30 80 1 10 76
M  V30 81 1 12 52
M  V30 82 1 13 57
M  V30 83 1 14 97
M  V30 84 1 15 60
M  V30 85 1 17 64
M  V30 86 1 18 67
M  V30 87 1 19 73
M  V30 88 1 20 87
M  V30 89 1 22 94
M  V30 90 1 23 82
M  V30 91 1 24 54
M  V30 92 1 25 91
M  V30 93 1 27 75
M  V30 94 1 28 66
M  V30 95 1 29 99
M  V30 96 1 30 78
M  V30 97 1 32 46
M  V30 98 1 33 79
M  V30 99 1 34 88
M  V30 100 1 35 51
M  V30 101 1 37 81
M  V30 102 1 38 93
M  V30 103 1 39 72
M  V30 104 1 40 96
M  V30 105 1 42 69
M  V30 106 1 43 90
M  V30 107 1 44 48
M  V30 108 1 45 84
M  V30 END BOND
M  V30 END CTAB
M  END

$$$$
