
     RDKit          3D

  0  0  0  0  0  0  0  0  0  0999 V3000
M  V30 BEGIN CTAB
M  V30 COUNTS 99 108 0 0 0
M  V30 BEGIN ATOM
M  V30 1 Pd -3.0692 -4.2747 -1.7088 0
M  V30 2 Pb -3.0588 -3.3007 -1.9541 0
M  V30 3 Pb -3.2087 -5.2259 -1.4609 0
M  V30 4 Pb -2.8981 -4.5677 -2.6690 0
M  V30 5 Pb -3.1317 -4.0471 -0.7387 0
M  V30 6 Pd 0.3332 -7.7766 -4.7815 0
M  V30 7 Pb 0.9749 -7.1109 -5.1570 0
M  V30 8 Pb -0.4474 -7.1382 -4.9162 0
M  V30 9 Pb -0.2756 -8.4357 -4.3548 0
M  V30 10 Pb 1.1140 -8.3192 -4.4751 0
M  V30 11 Pd 2.7673 4.6146 -0.2721 0
M  V30 12 Pb 2.4535 5.5519 -0.4420 0
M  V30 13 Pb 3.0846 3.6797 -0.1037 0
M  V30 14 Pb 3.0214 4.8666 0.6613 0
M  V30 15 Pb 2.5533 4.3593 -1.2150 0
M  V30 16 Pd 0.7994 5.5335 5.1077 0
M  V30 17 Pb 0.0954 5.5991 5.8083 0
M  V30 18 Pb 0.6072 6.4783 4.8416 0
M  V30 19 Pb 0.8572 4.5323 5.2771 0
M  V30 20 Pb 1.5794 5.4981 4.4813 0
M  V30 21 Pd -0.5876 1.1022 -2.9636 0
M  V30 22 Pb -1.2294 1.8437 -3.1423 0
M  V30 23 Pb 0.0976 0.4372 -2.6803 0
M  V30 24 Pb 0.1510 1.7453 -3.1672 0
M  V30 25 Pb -1.3530 0.4756 -2.7926 0
M  V30 26 Pd 3.3781 -5.6078 -1.8167 0
M  V30 27 Pb 3.4511 -5.4629 -2.8023 0
M  V30 28 Pb 3.2240 -5.7228 -0.8338 0
M  V30 29 Pb 3.4390 -6.5932 -1.9877 0
M  V30 30 Pb 3.2929 -4.6257 -1.6872 0
M  V30 31 Pd -1.7352 7.2457 0.7472 0
M  V30 32 Pb -2.0221 6.8225 -0.1114 0
M  V30 33 Pb -2.5413 6.8154 1.1572 0
M  V30 34 Pb -0.8970 7.5753 0.3126 0
M  V30 35 Pb -1.4276 7.6636 1.6080 0
M  V30 36 Pd 0.6696 -2.4126 1.4236 0
M  V30 37 Pb 0.1883 -1.5504 1.2651 0
M  V30 38 Pb 1.5221 -1.9315 1.2229 0
M  V30 39 Pb -0.2158 -2.8315 1.6261 0
M  V30 40 Pb 1.1581 -3.2809 1.5587 0
M  V30 41 Pd -2.5126 1.3533 4.1513 0
M  V30 42 Pb -1.5972 1.3239 4.5790 0
M  V30 43 Pb -2.9183 1.5826 5.0316 0
M  V30 44 Pb -3.3336 1.7081 3.7130 0
M  V30 45 Pb -2.1136 1.1661 3.2529 0
M  V30 46 Ag -3.2839 -5.9571 -1.3755 0
M  V30 47 Fe -2.2844 -7.8121 -2.4200 0
M  V30 48 Ag -0.7669 -8.7849 -3.9288 0
M  V30 49 Ag -3.1180 6.3891 1.3837 0
M  V30 50 Fe -3.6937 4.3050 2.3669 0
M  V30 51 Ag -3.8306 2.1759 3.4093 0
M  V30 52 Ag 0.6614 0.0227 -2.4198 0
M  V30 53 Fe 1.9021 -1.9599 -2.0366 0
M  V30 54 Ag 3.2074 -3.8909 -1.6060 0
M  V30 55 Ag -1.6448 2.4623 -3.1927 0
M  V30 56 Fe -2.0383 4.5072 -2.0562 0
M  V30 57 Ag -2.2427 6.4651 -0.7318 0
M  V30 58 Ag -0.4482 5.5216 6.3063 0
M  V30 59 Fe -2.1056 3.8662 6.5110 0
M  V30 60 Ag -3.1142 1.9219 5.6590 0
M  V30 61 Ag 3.3159 2.9751 0.0178 0
M  V30 62 Fe 2.7836 0.7194 0.5394 0
M  V30 63 Ag 2.1128 -1.4972 1.0682 0
M  V30 64 Ba 3.2516 5.0525 1.3501 0
M  V30 65 Ga 2.6746 5.2629 2.6917 0
M  V30 66 Ba 2.2092 5.4977 4.0719 0
M  V30 67 Ba -0.1653 -0.9043 1.1237 0
M  V30 68 Ga -0.9954 0.0594 1.8716 0
M  V30 69 Ba -1.8303 1.0580 2.5663 0
M  V30 70 Ba 1.7007 -8.6498 -4.1463 0
M  V30 71 Ga 2.6258 -8.0520 -3.1632 0
M  V30 72 Ba 3.4654 -7.3149 -2.1977 0
M  V30 73 Ba 0.8688 3.7729 5.3886 0
M  V30 74 Ga -0.0251 2.5999 5.1345 0
M  V30 75 Ba -0.9052 1.4146 4.8885 0
M  V30 76 Ba -2.7682 -4.8070 -3.3878 0
M  V30 77 Ga -1.8725 -5.7388 -4.1457 0
M  V30 78 Ba -1.0279 -6.6411 -4.9925 0
M  V30 79 Ba -3.1138 -3.9372 0.0018 0
M  V30 80 Ga -2.0305 -3.5078 0.9057 0
M  V30 81 Ba -0.9128 -3.0733 1.7641 0
M  V30 82 Ba 1.5035 -6.6262 -5.3689 0
M  V30 83 Ga 2.5061 -5.9563 -4.5251 0
M  V30 84 Ba 3.4345 -5.3701 -3.5449 0
M  V30 85 Ba 2.2237 6.2581 -0.5662 0
M  V30 86 Ga 0.9922 7.0275 -0.2949 0
M  V30 87 Ba -0.2507 7.7743 -0.0121 0
M  V30 88 Ba 3.0683 -5.7525 -0.0987 0
M  V30 89 Ga 2.3020 -4.8500 0.7901 0
M  V30 90 Ba 1.5305 -3.9306 1.6568 0
M  V30 91 Ba 2.4236 4.1577 -1.9257 0
M  V30 92 Ga 1.5459 3.1952 -2.6182 0
M  V30 93 Ba 0.6833 2.2436 -3.3440 0
M  V30 94 Ba -3.1628 -2.5716 -2.1174 0
M  V30 95 Ga -2.4728 -1.2934 -2.3986 0
M  V30 96 Ba -1.9806 0.0695 -2.6979 0
M  V30 97 Ba 0.3841 7.1567 4.6097 0
M  V30 98 Ga -0.3815 7.5890 3.4196 0
M  V30 99 Ba -1.1497 8.0008 2.2239 0
M  V30 END ATOM
M  V30 BEGIN BOND
M  V30 1 1 1 2
M  V30 2 1 1 3
M  V30 3 1 1 4
M  V30 4 1 1 5
M  V30 5 1 6 7
M  V30 6 1 6 8
M  V30 7 1 6 9
M  V30 8 1 6 10
M  V30 9 1 11 12
M  V30 10 1 11 13
M  V30 11 1 11 14
M  V30 12 1 11 15
M  V30 13 1 16 17
M  V30 14 1 16 18
M  V30 15 1 16 19
M  V30 16 1 16 20
M  V30 17 1 21 22
M  V30 18 1 21 23
M  V30 19 1 21 24
M  V30 20 1 21 25
M  V30 21 1 26 27
M  V30 22 1 26 28
M  V30 23 1 26 29
M  V30 24 1 26 30
M  V30 25 1 31 32
M  V30 26 1 31 33
M  V30 27 1 31 34
M  V30 28 1 31 35
M  V30 29 1 36 37
M  V30 30 1 36 38
M  V30 31 1 36 39
M  V30 32 1 36 40
M  V30 33 1 41 42
M  V30 34 1 41 43
M  V30 35 1 41 44
M  V30 36 1 41 45
M  V30 37 1 46 47
M  V30 38 1 47 48
M  V30 39 1 49 50
M  V30 40 1 50 51
M  V30 41 1 52 53
M  V30 42 1 53 54
M  V30 43 1 55 56
M  V30 44 1 56 57
M  V30 45 1 58 59
M  V30 46 1 59 60
M  V30 47 1 61 62
M  V30 48 1 62 63
M  V30 49 1 64 65
M  V30 50 1 65 66
M  V30 51 1 67 68
M  V30 52 1 68 69
M  V30 53 1 70 71
M  V30 54 1 71 72
M  V30 55 1 73 74
M  V30 56 1 74 75
M  V30 57 1 76 77
M  V30 58 1 77 78
M  V30 59 1 79 80
M  V30 60 1 80 81
M  V30 61 1 82 83
M  V30 62 1 83 84
M  V30 63 1 85 86
M  V30 64 1 86 87
M  V30 65 1 88 89
M  V30 66 1 89 90
M  V30 67 1 91 92
M  V30 68 1 92 93
M  V30 69 1 94 95
M  V30 70 1 95 96
M  V30 71 1 97 98
M  V30 72 1 98 99
M  V30 73 1 2 94
M  V30 74 1 3 46
M  V30 75 1 4 76
M  V30 76 1 5 79
M  V30 77 1 7 82
M  V30 78 1 8 78
M  V30 79 1 9 48
M  V30 80 1 10 70
M  V30 81 1 12 85
M  V30 82 1 13 61
M  V30 83 1 14 64
M  V30 84 1 15 91
M  V30 85 1 17 58
M  V30 86 1 18 97
M  V30 87 1 19 73
M  V30 88 1 20 66
M  V30 89 1 22 55
M  V30 90 1 23 52
M  V30 91 1 24 93
M  V30 92 1 25 96
M  V30 93 1 27 84
M  V30 94 1 28 88
M  V30 95 1 29 72
M  V30 96 1 30 54
M  V30 97 1 32 57
M  V30 98 1 33 49
M  V30 99 1 34 87
M  V30 100 1 35 99
M  V30 101 1 37 67
M  V30 102 1 38 63
M  V30 103 1 39 81
M  V30 104 1 40 90
M  V30 105 1 42 75
M  V30 106 1 43 60
M  V30 107 1 44 51
M  V30 108 1 45 69
M  V30 END BOND
M  V30 END CTAB
M  END

$$$$
