
     RDKit          3D

  0  0  0  0  0  0  0  0  0  0999 V3000
M  V30 BEGIN CTAB
M  V30 COUNTS 99 108 0 0 0
M  V30 BEGIN ATOM
M  V30 1 Pd -3.9427 -1.5638 1.0403 0
M  V30 2 Pb -4.6697 -1.0287 0.6019 0
M  V30 3 Pb -3.2091 -2.0607 1.5084 0
M  V30 4 Pb -4.1271 -1.1247 1.9171 0
M  V30 5 Pb -3.7657 -2.0148 0.1631 0
M  V30 6 Pd 5.7049 -6.5803 0.7477 0
M  V30 7 Pb 6.0179 -5.7015 0.3817 0
M  V30 8 Pb 5.3799 -7.4524 1.1078 0
M  V30 9 Pb 5.5927 -6.9385 -0.1774 0
M  V30 10 Pb 5.6657 -6.2145 1.6793 0
M  V30 11 Pd -0.8587 5.9179 -3.2337 0
M  V30 12 Pb -1.3098 6.6728 -2.7772 0
M  V30 13 Pb -0.3818 5.1749 -3.7002 0
M  V30 14 Pb -0.0180 6.4575 -3.2417 0
M  V30 15 Pb -1.7046 5.3498 -3.1582 0
M  V30 16 Pd 2.3271 6.4269 0.6926 0
M  V30 17 Pb 2.3981 6.8625 -0.2049 0
M  V30 18 Pb 1.5130 6.9644 0.9243 0
M  V30 19 Pb 3.0969 5.8307 0.4612 0
M  V30 20 Pb 2.2121 5.9790 1.5776 0
M  V30 21 Pd 4.3262 0.0875 -3.1082 0
M  V30 22 Pb 4.9437 -0.5437 -2.6339 0
M  V30 23 Pb 3.6958 0.7039 -3.5781 0
M  V30 24 Pb 4.6347 0.8371 -2.5201 0
M  V30 25 Pb 3.9931 -0.6410 -3.7063 0
M  V30 26 Pd -3.5786 4.9028 4.4914 0
M  V30 27 Pb -3.3261 5.7611 4.0420 0
M  V30 28 Pb -4.5426 4.9650 4.2316 0
M  V30 29 Pb -3.7864 3.9905 4.8304 0
M  V30 30 Pb -2.6065 4.7829 4.6870 0
M  V30 31 Pd -5.5885 3.8500 -0.0451 0
M  V30 32 Pb -5.8084 2.8752 -0.1564 0
M  V30 33 Pb -6.1024 3.9148 0.8093 0
M  V30 34 Pb -5.0325 3.8484 -0.9015 0
M  V30 35 Pb -5.4312 4.8228 0.0555 0
M  V30 36 Pd 0.0943 -6.1452 -3.7380 0
M  V30 37 Pb 0.5472 -5.4854 -4.3336 0
M  V30 38 Pb -0.3033 -6.7550 -3.0544 0
M  V30 39 Pb 0.9439 -6.6717 -3.7421 0
M  V30 40 Pb -0.7158 -5.5640 -3.6651 0
M  V30 41 Pd 1.5550 -6.9436 3.1848 0
M  V30 42 Pb 2.1141 -7.7544 3.0302 0
M  V30 43 Pb 1.0103 -6.1131 3.3041 0
M  V30 44 Pb 0.8231 -7.3505 2.6414 0
M  V30 45 Pb 2.3511 -6.5114 3.6148 0
M  V30 46 Ag 6.2534 -5.0465 0.0965 0
M  V30 47 Fe 5.8186 -3.0312 -1.0876 0
M  V30 48 Ag 5.4089 -1.0089 -2.2689 0
M  V30 49 Ag 3.6981 -1.1514 -4.1699 0
M  V30 50 Fe 2.3332 -3.0644 -4.5045 0
M  V30 51 Ag 0.9511 -4.9829 -4.7127 0
M  V30 52 Ag 3.6482 5.3571 0.2722 0
M  V30 53 Fe 4.2855 3.3876 -0.8949 0
M  V30 54 Ag 4.8515 1.4096 -2.0843 0
M  V30 55 Ag 0.8754 7.2964 1.1479 0
M  V30 56 Fe -1.1294 6.9578 2.3814 0
M  V30 57 Ag -3.0344 6.3420 3.6643 0
M  V30 58 Ag -1.7144 7.1461 -2.3826 0
M  V30 59 Fe -3.5816 6.8081 -0.9957 0
M  V30 60 Ag -5.2530 5.5387 0.0629 0
M  V30 61 Ag 2.0332 5.6703 2.2354 0
M  V30 62 Fe 0.1751 5.1306 3.6092 0
M  V30 63 Ag -1.8637 4.7134 4.7495 0
M  V30 64 Ag 5.3916 -7.2008 -0.8488 0
M  V30 65 Fe 3.5774 -7.1909 -2.3791 0
M  V30 66 Ag 1.6181 -6.9966 -3.7046 0
M  V30 67 Ag -4.2294 -0.7994 2.5826 0
M  V30 68 Fe -4.1284 1.1809 3.8818 0
M  V30 69 Ag -3.9560 3.2790 4.9713 0
M  V30 70 Ag -3.6693 -2.3361 -0.5101 0
M  V30 71 Fe -2.4927 -3.7250 -2.0377 0
M  V30 72 Ag -1.3075 -5.1163 -3.5564 0
M  V30 73 Ag -0.5632 -7.1520 -2.4755 0
M  V30 74 Fe -0.2449 -7.5048 -0.1509 0
M  V30 75 Ag 0.3337 -7.6253 2.1469 0
M  V30 76 Ag -2.6741 -2.3684 1.9385 0
M  V30 77 Fe -1.0469 -3.9709 2.5958 0
M  V30 78 Ag 0.6095 -5.4835 3.3810 0
M  V30 79 Ag -0.0011 4.6351 -4.0525 0
M  V30 80 Fe 1.6032 2.8868 -3.9899 0
M  V30 81 Ag 3.2056 1.1361 -3.9444 0
M  V30 82 Ba -5.2213 -0.6389 0.2679 0
M  V30 83 Ga -5.5787 0.7774 0.0254 0
M  V30 84 Ba -6.0223 2.1593 -0.2673 0
M  V30 85 Ba -2.3254 4.8931 -3.1384 0
M  V30 86 Ga -3.4581 4.4204 -2.2770 0
M  V30 87 Ba -4.6441 3.8395 -1.5668 0
M  V30 88 Ba 5.5382 -5.9721 2.3799 0
M  V30 89 Ga 4.2951 -6.0547 3.1777 0
M  V30 90 Ba 2.9919 -6.2026 3.8622 0
M  V30 91 Ba 5.0971 -8.0819 1.3956 0
M  V30 92 Ga 3.8501 -8.2836 2.1473 0
M  V30 93 Ba 2.5768 -8.3210 2.8808 0
M  V30 94 Ba 0.6139 6.8564 -3.1913 0
M  V30 95 Ga 1.5493 7.0387 -2.0665 0
M  V30 96 Ba 2.4302 7.1642 -0.8910 0
M  V30 97 Ba -5.2626 4.9127 4.0252 0
M  V30 98 Ga -5.8971 4.4912 2.7611 0
M  V30 99 Ba -6.4452 4.0627 1.4596 0
M  V30 END ATOM
M  V30 BEGIN BOND
M  V30 1 1 1 2
M  V30 2 1 1 3
M  V30 3 1 1 4
M  V30 4 1 1 5
M  V30 5 1 6 7
M  V30 6 1 6 8
M  V30 7 1 6 9
M  V30 8 1 6 10
M  V30 9 1 11 12
M  V30 10 1 11 13
M  V30 11 1 11 14
M  V30 12 1 11 15
M  V30 13 1 16 17
M  V30 14 1 16 18
M  V30 15 1 16 19
M  V30 16 1 16 20
M  V30 17 1 21 22
M  V30 18 1 21 23
M  V30 19 1 21 24
M  V30 20 1 21 25
M  V30 21 1 26 27
M  V30 22 1 26 28
M  V30 23 1 26 29
M  V30 24 1 26 30
M  V30 25 1 31 32
M  V30 26 1 31 33
M  V30 27 1 31 34
M  V30 28 1 31 35
M  V30 29 1 36 37
M  V30 30 1 36 38
M  V30 31 1 36 39
M  V30 32 1 36 40
M  V30 33 1 41 42
M  V30 34 1 41 43
M  V30 35 1 41 44
M  V30 36 1 41 45
M  V30 37 1 46 47
M  V30 38 1 47 48
M  V30 39 1 49 50
M  V30 40 1 50 51
M  V30 41 1 52 53
M  V30 42 1 53 54
M  V30 43 1 55 56
M  V30 44 1 56 57
M  V30 45 1 58 59
M  V30 46 1 59 60
M  V30 47 1 61 62
M  V30 48 1 62 63
M  V30 49 1 64 65
M  V30 50 1 65 66
M  V30 51 1 67 68
M  V30 52 1 68 69
M  V30 53 1 70 71
M  V30 54 1 71 72
M  V30 55 1 73 74
M  V30 56 1 74 75
M  V30 57 1 76 77
M  V30 58 1 77 78
M  V30 59 1 79 80
M  V30 60 1 80 81
M  V30 61 1 82 83
M  V30 62 1 83 84
M  V30 63 1 85 86
M  V30 64 1 86 87
M  V30 65 1 88 89
M  V30 66 1 89 90
M  V30 67 1 91 92
M  V30 68 1 92 93
M  V30 69 1 94 95
M  V30 70 1 95 96
M  V30 71 1 97 98
M  V30 72 1 98 99
M  V30 73 1 2 82
M  V30 74 1 3 76
M  V30 75 1 4 67
M  V30 76 1 5 70
M  V30 77 1 7 46
M  V30 78 1 8 91
M  V30 79 1 9 64
M  V30 80 1 10 88
M  V30 81 1 12 58
M  V30 82 1 13 79
M  V30 83 1 14 94
M  V30 84 1 15 85
M  V30 85 1 17 96
M  V30 86 1 18 55
M  V30 87 1 19 52
M  V30 88 1 20 61
M  V30 89 1 22 48
M  V30 90 1 23 81
M  V30 91 1 24 54
M  V30 92 1 25 49
M  V30 93 1 27 57
M  V30 94 1 28 97
M  V30 95 1 29 69
M  V30 96 1 30 63
M  V30 97 1 32 84
M  V30 98 1 33 99
M  V30 99 1 34 87
M  V30 100 1 35 60
M  V30 101 1 37 51
M  V30 102 1 38 73
M  V30 103 1 39 66
M  V30 104 1 40 72
M  V30 105 1 42 93
M  V30 106 1 43 78
M  V30 107 1 44 75
M  V30 108 1 45 90
M  V30 END BOND
M  V30 END CTAB
M  END

$$$$
