
     RDKit          3D

  0  0  0  0  0  0  0  0  0  0999 V3000
M  V30 BEGIN CTAB
M  V30 COUNTS 99 108 0 0 0
M  V30 BEGIN ATOM
M  V30 1 Pd -2.5592 -0.5589 -3.7817 0
M  V30 2 Pb -1.6419 -0.9430 -3.6421 0
M  V30 3 Pb -2.3366 -0.3530 -4.7379 0
M  V30 4 Pb -2.8951 -0.7930 -2.8686 0
M  V30 5 Pb -3.4118 -0.0530 -3.8738 0
M  V30 6 Pd 2.6266 4.6555 -2.0672 0
M  V30 7 Pb 2.6552 3.8063 -1.5404 0
M  V30 8 Pb 2.5525 5.4439 -2.6695 0
M  V30 9 Pb 1.9407 5.0917 -1.4841 0
M  V30 10 Pb 3.1295 4.1894 -2.7944 0
M  V30 11 Pd 4.9584 -3.0875 2.9162 0
M  V30 12 Pb 4.9340 -3.0547 1.8968 0
M  V30 13 Pb 5.1034 -2.0977 2.9906 0
M  V30 14 Pb 4.8259 -3.1600 3.9026 0
M  V30 15 Pb 4.8737 -4.0753 2.8808 0
M  V30 16 Pd -0.7315 -2.5128 7.8550 0
M  V30 17 Pb 0.1808 -2.8747 7.6613 0
M  V30 18 Pb -1.6128 -2.1154 8.0817 0
M  V30 19 Pb -0.2858 -1.6494 8.0762 0
M  V30 20 Pb -1.2065 -3.3068 7.4266 0
M  V30 21 Pd 2.1674 1.7031 2.9412 0
M  V30 22 Pb 2.3319 1.6295 1.9605 0
M  V30 23 Pb 3.1188 1.4388 3.0976 0
M  V30 24 Pb 2.0095 1.7475 3.9282 0
M  V30 25 Pb 1.2070 1.9124 2.7514 0
M  V30 26 Pd -4.1104 -3.6822 3.3005 0
M  V30 27 Pb -4.6337 -3.1324 3.9405 0
M  V30 28 Pb -3.6655 -4.2428 2.6032 0
M  V30 29 Pb -4.4497 -3.1353 2.5390 0
M  V30 30 Pb -3.6522 -4.1408 4.0894 0
M  V30 31 Pd 1.5039 -4.3878 -1.5571 0
M  V30 32 Pb 1.2577 -3.5505 -2.0507 0
M  V30 33 Pb 0.5670 -4.7243 -1.5501 0
M  V30 34 Pb 1.7567 -5.2470 -1.1303 0
M  V30 35 Pb 2.4353 -4.0200 -1.3647 0
M  V30 36 Pd -2.7769 4.2468 -2.3184 0
M  V30 37 Pb -2.6868 3.8047 -1.4248 0
M  V30 38 Pb -2.9075 4.6767 -3.2184 0
M  V30 39 Pb -2.0689 4.8807 -1.9831 0
M  V30 40 Pb -3.4993 3.6164 -2.6092 0
M  V30 41 Pd -0.9318 3.5782 -7.2850 0
M  V30 42 Pb -0.5266 4.4827 -7.1925 0
M  V30 43 Pb -1.3041 2.6499 -7.3258 0
M  V30 44 Pb -1.7988 3.9950 -7.0143 0
M  V30 45 Pb -0.0045 3.2117 -7.3548 0
M  V30 46 Ag 0.4895 2.0359 2.5665 0
M  V30 47 Fe -1.0784 2.7678 0.9375 0
M  V30 48 Ag -2.5881 3.5152 -0.7386 0
M  V30 49 Ag 0.0563 -0.9857 8.0781 0
M  V30 50 Fe 1.0204 0.4961 6.4951 0
M  V30 51 Ag 1.8938 1.7361 4.6696 0
M  V30 52 Ag -2.3038 -1.8571 8.1171 0
M  V30 53 Fe -4.0434 -2.0210 6.5450 0
M  V30 54 Ag -4.9313 -2.7373 4.4896 0
M  V30 55 Ag 4.7389 -4.7917 2.7648 0
M  V30 56 Fe 3.4287 -5.8622 1.1353 0
M  V30 57 Ag 2.0118 -5.8174 -0.7376 0
M  V30 58 Ag 3.3382 3.8443 -3.4256 0
M  V30 59 Fe 2.2669 3.2894 -5.4696 0
M  V30 60 Ag 0.7102 3.0182 -7.2407 0
M  V30 61 Ag 2.4117 5.9352 -3.2085 0
M  V30 62 Fe 1.1750 5.8571 -5.2212 0
M  V30 63 Ag -0.1782 5.1143 -7.0114 0
M  V30 64 Ag 4.6236 -3.2726 4.6143 0
M  V30 65 Fe 2.7979 -3.1867 6.1304 0
M  V30 66 Ag 0.8995 -3.0625 7.5520 0
M  V30 67 Ag -3.2980 -0.9303 -2.2488 0
M  V30 68 Fe -3.9082 -1.8505 -0.1458 0
M  V30 69 Ag -4.6207 -2.7024 1.9540 0
M  V30 70 Ag -3.4166 -4.5984 1.9913 0
M  V30 71 Fe -1.8115 -4.8551 0.2617 0
M  V30 72 Ag -0.1069 -4.9985 -1.3833 0
M  V30 73 Ba 2.6925 3.1178 -1.2451 0
M  V30 74 Ga 2.5660 2.3860 0.0272 0
M  V30 75 Ba 2.4655 1.5419 1.2307 0
M  V30 76 Ba -0.9120 -1.1207 -3.5742 0
M  V30 77 Ga 0.0402 -2.0803 -2.9744 0
M  V30 78 Ba 1.1353 -2.9306 -2.4592 0
M  V30 79 Ba 4.9023 -3.0467 1.1269 0
M  V30 80 Ga 3.9755 -3.4090 0.0034 0
M  V30 81 Ba 3.1301 -3.7354 -1.1928 0
M  V30 82 Ba -1.5713 -3.8850 7.0714 0
M  V30 83 Ga -2.4378 -4.1239 5.8687 0
M  V30 84 Ba -3.3072 -4.4715 4.6950 0
M  V30 85 Ba 1.3638 5.4583 -1.1701 0
M  V30 86 Ga -0.1008 5.3785 -1.3915 0
M  V30 87 Ba -1.5661 5.3108 -1.6117 0
M  V30 88 Ba -4.0087 0.3941 -3.8631 0
M  V30 89 Ga -4.0782 1.7836 -3.3777 0
M  V30 90 Ba -4.0428 3.1662 -2.8689 0
M  V30 91 Ba -3.1129 4.9238 -3.9039 0
M  V30 92 Ga -2.7472 4.6592 -5.3150 0
M  V30 93 Ba -2.3663 4.3906 -6.7213 0
M  V30 94 Ba -2.2420 -0.2301 -5.4751 0
M  V30 95 Ga -1.8798 0.8745 -6.3881 0
M  V30 96 Ba -1.5263 1.9330 -7.3574 0
M  V30 97 Ba 5.2555 -1.3660 3.0836 0
M  V30 98 Ga 4.5270 -0.0818 3.1297 0
M  V30 99 Ba 3.8311 1.2202 3.1813 0
M  V30 END ATOM
M  V30 BEGIN BOND
M  V30 1 1 1 2
M  V30 2 1 1 3
M  V30 3 1 1 4
M  V30 4 1 1 5
M  V30 5 1 6 7
M  V30 6 1 6 8
M  V30 7 1 6 9
M  V30 8 1 6 10
M  V30 9 1 11 12
M  V30 10 1 11 13
M  V30 11 1 11 14
M  V30 12 1 11 15
M  V30 13 1 16 17
M  V30 14 1 16 18
M  V30 15 1 16 19
M  V30 16 1 16 20
M  V30 17 1 21 22
M  V30 18 1 21 23
M  V30 19 1 21 24
M  V30 20 1 21 25
M  V30 21 1 26 27
M  V30 22 1 26 28
M  V30 23 1 26 29
M  V30 24 1 26 30
M  V30 25 1 31 32
M  V30 26 1 31 33
M  V30 27 1 31 34
M  V30 28 1 31 35
M  V30 29 1 36 37
M  V30 30 1 36 38
M  V30 31 1 36 39
M  V30 32 1 36 40
M  V30 33 1 41 42
M  V30 34 1 41 43
M  V30 35 1 41 44
M  V30 36 1 41 45
M  V30 37 1 46 47
M  V30 38 1 47 48
M  V30 39 1 49 50
M  V30 40 1 50 51
M  V30 41 1 52 53
M  V30 42 1 53 54
M  V30 43 1 55 56
M  V30 44 1 56 57
M  V30 45 1 58 59
M  V30 46 1 59 60
M  V30 47 1 61 62
M  V30 48 1 62 63
M  V30 49 1 64 65
M  V30 50 1 65 66
M  V30 51 1 67 68
M  V30 52 1 68 69
M  V30 53 1 70 71
M  V30 54 1 71 72
M  V30 55 1 73 74
M  V30 56 1 74 75
M  V30 57 1 76 77
M  V30 58 1 77 78
M  V30 59 1 79 80
M  V30 60 1 80 81
M  V30 61 1 82 83
M  V30 62 1 83 84
M  V30 63 1 85 86
M  V30 64 1 86 87
M  V30 65 1 88 89
M  V30 66 1 89 90
M  V30 67 1 91 92
M  V30 68 1 92 93
M  V30 69 1 94 95
M  V30 70 1 95 96
M  V30 71 1 97 98
M  V30 72 1 98 99
M  V30 73 1 2 76
M  V30 74 1 3 94
M  V30 75 1 4 67
M  V30 76 1 5 88
M  V30 77 1 7 73
M  V30 78 1 8 61
M  V30 79 1 9 85
M  V30 80 1 10 58
M  V30 81 1 12 79
M  V30 82 1 13 97
M  V30 83 1 14 64
M  V30 84 1 15 55
M  V30 85 1 17 66
M  V30 86 1 18 52
M  V30 87 1 19 49
M  V30 88 1 20 82
M  V30 89 1 22 75
M  V30 90 1 23 99
M  V30 91 1 24 51
M  V30 92 1 25 46
M  V30 93 1 27 54
M  V30 94 1 28 70
M  V30 95 1 29 69
M  V30 96 1 30 84
M  V30 97 1 32 78
M  V30 98 1 33 72
M  V30 99 1 34 57
M  V30 100 1 35 81
M  V30 101 1 37 48
M  V30 102 1 38 91
M  V30 103 1 39 87
M  V30 104 1 40 90
M  V30 105 1 42 63
M  V30 106 1 43 96
M  V30 107 1 44 93
M  V30 108 1 45 60
M  V30 END BOND
M  V30 END CTAB
M  END

$$$$
