
     RDKit          3D

  0  0  0  0  0  0  0  0  0  0999 V3000
M  V30 BEGIN CTAB
M  V30 COUNTS 99 108 0 0 0
M  V30 BEGIN ATOM
M  V30 1 Pd -0.4359 5.6809 3.1903 0
M  V30 2 Pb -0.6726 5.7841 4.1529 0
M  V30 3 Pb -0.8874 4.7945 3.2881 0
M  V30 4 Pb 0.0842 6.5279 3.1435 0
M  V30 5 Pb -0.2422 5.5283 2.2062 0
M  V30 6 Pd 3.4031 5.0052 -1.3772 0
M  V30 7 Pb 3.1810 4.1621 -1.8977 0
M  V30 8 Pb 3.5993 5.8470 -0.8833 0
M  V30 9 Pb 2.4471 5.0598 -1.0459 0
M  V30 10 Pb 4.3485 4.9225 -1.6754 0
M  V30 11 Pd 1.4680 -4.6660 4.0199 0
M  V30 12 Pb 2.4441 -4.6301 3.7967 0
M  V30 13 Pb 1.3731 -5.4481 3.4062 0
M  V30 14 Pb 0.4865 -4.6636 4.2132 0
M  V30 15 Pb 1.5373 -3.8809 4.6357 0
M  V30 16 Pd 4.4220 -0.7424 -2.9620 0
M  V30 17 Pb 4.9489 -1.5879 -2.8467 0
M  V30 18 Pb 3.5633 -1.2438 -2.8681 0
M  V30 19 Pb 3.8925 0.1190 -3.0454 0
M  V30 20 Pb 5.2621 -0.2172 -3.0522 0
M  V30 21 Pd -4.9150 2.2753 1.9944 0
M  V30 22 Pb -5.4666 1.9251 2.7536 0
M  V30 23 Pb -4.3593 2.6399 1.2558 0
M  V30 24 Pb -4.1380 2.3712 2.6116 0
M  V30 25 Pb -5.6268 2.1051 1.3053 0
M  V30 26 Pd 3.9142 -5.7317 -0.4913 0
M  V30 27 Pb 4.5966 -5.2100 -1.0088 0
M  V30 28 Pb 3.2264 -6.2484 0.0165 0
M  V30 29 Pb 3.4959 -6.0336 -1.3467 0
M  V30 30 Pb 4.2972 -5.4179 0.3795 0
M  V30 31 Pd -0.2048 -2.9602 -5.8254 0
M  V30 32 Pb -0.4958 -2.0082 -5.9953 0
M  V30 33 Pb -0.8436 -3.2379 -6.5387 0
M  V30 34 Pb 0.1095 -3.8917 -5.6595 0
M  V30 35 Pb 0.3059 -2.7086 -5.0004 0
M  V30 36 Pd -4.4154 0.9018 -5.0706 0
M  V30 37 Pb -4.8091 0.2205 -5.6839 0
M  V30 38 Pb -3.5414 0.7861 -5.5576 0
M  V30 39 Pb -5.2265 0.9715 -4.4816 0
M  V30 40 Pb -3.9810 1.5591 -4.4653 0
M  V30 41 Pd -3.2719 0.2968 6.4983 0
M  V30 42 Pb -4.2123 0.4921 6.2138 0
M  V30 43 Pb -3.1256 1.2493 6.7689 0
M  V30 44 Pb -2.3128 0.0913 6.6938 0
M  V30 45 Pb -3.3613 -0.6532 6.1993 0
M  V30 46 Ag -3.9809 2.8847 0.6650 0
M  V30 47 Fe -3.7133 2.5716 -1.6645 0
M  V30 48 Ag -3.6793 2.0170 -3.9640 0
M  V30 49 Ag -1.4571 -3.3135 -6.9525 0
M  V30 50 Fe -3.4539 -2.0511 -6.8860 0
M  V30 51 Ag -4.9138 -0.3374 -6.1662 0
M  V30 52 Ag -6.0730 1.9637 0.7116 0
M  V30 53 Fe -6.0481 1.4980 -1.6250 0
M  V30 54 Ag -5.7546 1.0495 -3.9466 0
M  V30 55 Ag 5.0174 4.7048 -1.9104 0
M  V30 56 Fe 5.8373 2.5997 -2.5904 0
M  V30 57 Ag 5.8006 0.2924 -3.0816 0
M  V30 58 Ag 3.1482 -6.2321 -1.9796 0
M  V30 59 Fe 1.7765 -5.5120 -3.7762 0
M  V30 60 Ag 0.4124 -4.5440 -5.4582 0
M  V30 61 Ag -0.2424 -4.5860 4.3735 0
M  V30 62 Fe -1.8871 -3.0632 5.1596 0
M  V30 63 Ag -3.3396 -1.3658 5.9662 0
M  V30 64 Ag 1.5030 -3.2946 5.1026 0
M  V30 65 Fe 0.0481 -1.6498 6.0081 0
M  V30 66 Ag -1.5937 -0.1099 6.7664 0
M  V30 67 Ag 0.5757 7.0623 2.9920 0
M  V30 68 Fe 2.2791 7.1617 1.3619 0
M  V30 69 Ag 3.6116 6.4516 -0.4521 0
M  V30 70 Ag -0.9365 5.6953 4.8458 0
M  V30 71 Fe -1.9702 3.9417 6.0659 0
M  V30 72 Ag -2.9564 1.9629 6.9297 0
M  V30 73 Ba 1.3206 -6.0269 2.9346 0
M  V30 74 Ga 2.0003 -6.3482 1.6679 0
M  V30 75 Ba 2.7076 -6.6232 0.4053 0
M  V30 76 Ba 2.9668 3.5652 -2.3251 0
M  V30 77 Ga 3.2897 2.1498 -2.6688 0
M  V30 78 Ba 3.4596 0.7422 -3.1337 0
M  V30 79 Ba -5.8435 1.6805 3.3564 0
M  V30 80 Ga -5.4028 1.1499 4.6633 0
M  V30 81 Ba -4.9044 0.6254 5.9519 0
M  V30 82 Ba 2.9063 -1.5904 -2.7738 0
M  V30 83 Ga 1.7913 -2.0766 -3.6105 0
M  V30 84 Ba 0.6094 -2.6054 -4.3192 0
M  V30 85 Ba -0.1617 5.4176 1.4547 0
M  V30 86 Ga 0.8472 5.2623 0.3680 0
M  V30 87 Ba 1.7156 5.0900 -0.8317 0
M  V30 88 Ba 5.3616 -2.2105 -2.7520 0
M  V30 89 Ga 5.2120 -3.5161 -2.0740 0
M  V30 90 Ba 5.1098 -4.8344 -1.4118 0
M  V30 91 Ba 3.1685 -4.6063 3.5960 0
M  V30 92 Ga 3.8797 -4.8924 2.3326 0
M  V30 93 Ba 4.5501 -5.1890 1.0495 0
M  V30 94 Ba -1.1902 4.1350 3.4787 0
M  V30 95 Ga -2.3765 3.2991 3.2232 0
M  V30 96 Ba -3.5231 2.3926 3.0354 0
M  V30 97 Ba -0.6927 -1.2979 -6.1795 0
M  V30 98 Ga -1.8071 -0.3305 -6.0063 0
M  V30 99 Ba -2.8658 0.7059 -5.8905 0
M  V30 END ATOM
M  V30 BEGIN BOND
M  V30 1 1 1 2
M  V30 2 1 1 3
M  V30 3 1 1 4
M  V30 4 1 1 5
M  V30 5 1 6 7
M  V30 6 1 6 8
M  V30 7 1 6 9
M  V30 8 1 6 10
M  V30 9 1 11 12
M  V30 10 1 11 13
M  V30 11 1 11 14
M  V30 12 1 11 15
M  V30 13 1 16 17
M  V30 14 1 16 18
M  V30 15 1 16 19
M  V30 16 1 16 20
M  V30 17 1 21 22
M  V30 18 1 21 23
M  V30 19 1 21 24
M  V30 20 1 21 25
M  V30 21 1 26 27
M  V30 22 1 26 28
M  V30 23 1 26 29
M  V30 24 1 26 30
M  V30 25 1 31 32
M  V30 26 1 31 33
M  V30 27 1 31 34
M  V30 28 1 31 35
M  V30 29 1 36 37
M  V30 30 1 36 38
M  V30 31 1 36 39
M  V30 32 1 36 40
M  V30 33 1 41 42
M  V30 34 1 41 43
M  V30 35 1 41 44
M  V30 36 1 41 45
M  V30 37 1 46 47
M  V30 38 1 47 48
M  V30 39 1 49 50
M  V30 40 1 50 51
M  V30 41 1 52 53
M  V30 42 1 53 54
M  V30 43 1 55 56
M  V30 44 1 56 57
M  V30 45 1 58 59
M  V30 46 1 59 60
M  V30 47 1 61 62
M  V30 48 1 62 63
M  V30 49 1 64 65
M  V30 50 1 65 66
M  V30 51 1 67 68
M  V30 52 1 68 69
M  V30 53 1 70 71
M  V30 54 1 71 72
M  V30 55 1 73 74
M  V30 56 1 74 75
M  V30 57 1 76 77
M  V30 58 1 77 78
M  V30 59 1 79 80
M  V30 60 1 80 81
M  V30 61 1 82 83
M  V30 62 1 83 84
M  V30 63 1 85 86
M  V30 64 1 86 87
M  V30 65 1 88 89
M  V30 66 1 89 90
M  V30 67 1 91 92
M  V30 68 1 92 93
M  V30 69 1 94 95
M  V30 70 1 95 96
M  V30 71 1 97 98
M  V30 72 1 98 99
M  V30 73 1 2 70
M  V30 74 1 3 94
M  V30 75 1 4 67
M  V30 76 1 5 85
M  V30 77 1 7 76
M  V30 78 1 8 69
M  V30 79 1 9 87
M  V30 80 1 10 55
M  V30 81 1 12 91
M  V30 82 1 13 73
M  V30 83 1 14 61
M  V30 84 1 15 64
M  V30 85 1 17 88
M  V30 86 1 18 82
M  V30 87 1 19 78
M  V30 88 1 20 57
M  V30 89 1 22 79
M  V30 90 1 23 46
M  V30 91 1 24 96
M  V30 92 1 25 52
M  V30 93 1 27 90
M  V30 94 1 28 75
M  V30 95 1 29 58
M  V30 96 1 30 93
M  V30 97 1 32 97
M  V30 98 1 33 49
M  V30 99 1 34 60
M  V30 100 1 35 84
M  V30 101 1 37 51
M  V30 102 1 38 99
M  V30 103 1 39 54
M  V30 104 1 40 48
M  V30 105 1 42 81
M  V30 106 1 43 72
M  V30 107 1 44 66
M  V30 108 1 45 63
M  V30 END BOND
M  V30 END CTAB
M  END

$$$$
