
     RDKit          3D

  0  0  0  0  0  0  0  0  0  0999 V3000
M  V30 BEGIN CTAB
M  V30 COUNTS 99 108 0 0 0
M  V30 BEGIN ATOM
M  V30 1 Pd -3.4184 3.9832 2.4932 0
M  V30 2 Pb -2.5408 4.1291 2.9472 0
M  V30 3 Pb -3.6886 3.3366 3.2046 0
M  V30 4 Pb -3.1147 4.5973 1.7661 0
M  V30 5 Pb -4.3005 3.8446 2.0421 0
M  V30 6 Pd -1.6657 -5.3794 1.8535 0
M  V30 7 Pb -1.0404 -4.5979 1.9030 0
M  V30 8 Pb -2.2855 -6.1566 1.7918 0
M  V30 9 Pb -1.7557 -5.2616 0.8704 0
M  V30 10 Pb -1.8690 -5.3070 2.8404 0
M  V30 11 Pd 6.2164 -2.7398 -0.3589 0
M  V30 12 Pb 5.8594 -2.5398 0.5537 0
M  V30 13 Pb 5.5848 -3.5037 -0.4908 0
M  V30 14 Pb 6.4943 -2.8111 -1.3120 0
M  V30 15 Pb 6.7547 -1.9037 -0.2796 0
M  V30 16 Pd 3.1639 0.8718 -5.4982 0
M  V30 17 Pb 3.9691 0.2831 -5.4878 0
M  V30 18 Pb 3.7315 1.6803 -5.3395 0
M  V30 19 Pb 2.6065 0.0442 -5.5765 0
M  V30 20 Pb 2.3539 1.4579 -5.4851 0
M  V30 21 Pd 1.1806 -2.4508 -1.7580 0
M  V30 22 Pb 1.0710 -2.4355 -0.7623 0
M  V30 23 Pb 1.8061 -3.2284 -1.6565 0
M  V30 24 Pb 1.2532 -2.4681 -2.7583 0
M  V30 25 Pb 0.5558 -1.6739 -1.8407 0
M  V30 26 Pd 2.1773 5.1722 -2.6326 0
M  V30 27 Pb 3.0076 4.8787 -3.1087 0
M  V30 28 Pb 2.7212 5.6240 -1.9209 0
M  V30 29 Pb 1.3338 5.4788 -2.1902 0
M  V30 30 Pb 1.6340 4.7045 -3.3309 0
M  V30 31 Pd 4.2990 3.6511 2.1045 0
M  V30 32 Pb 3.4764 3.9104 2.6088 0
M  V30 33 Pb 4.2901 4.5244 1.6138 0
M  V30 34 Pb 5.1232 3.3598 1.6233 0
M  V30 35 Pb 4.2940 2.7436 2.5296 0
M  V30 36 Pd -5.7442 -0.0912 -0.2291 0
M  V30 37 Pb -4.9392 0.2951 -0.6754 0
M  V30 38 Pb -6.5141 -0.4946 0.2747 0
M  V30 39 Pb -5.4051 -0.9730 -0.5623 0
M  V30 40 Pb -6.0406 0.8171 0.0665 0
M  V30 41 Pd -6.0448 -3.1083 4.1122 0
M  V30 42 Pb -6.4128 -3.9953 3.8482 0
M  V30 43 Pb -5.6989 -2.2198 4.4116 0
M  V30 44 Pb -6.7911 -2.6578 3.6192 0
M  V30 45 Pb -5.2110 -3.5713 4.4674 0
M  V30 46 Ag -1.8770 4.2539 3.2706 0
M  V30 47 Fe 0.4922 4.1753 3.1467 0
M  V30 48 Ag 2.8595 4.0856 2.9959 0
M  V30 49 Ag 0.0780 -1.0984 -1.9003 0
M  V30 50 Fe -2.0879 -0.2201 -1.4827 0
M  V30 51 Ag -4.2939 0.5060 -0.9898 0
M  V30 52 Ag 7.0602 -1.2241 -0.2211 0
M  V30 53 Fe 6.5508 0.9792 0.4935 0
M  V30 54 Ag 5.7222 3.0498 1.3003 0
M  V30 55 Ag -2.8621 -6.6212 1.8025 0
M  V30 56 Fe -5.0265 -6.1826 2.6099 0
M  V30 57 Ag -6.5377 -4.6876 3.6156 0
M  V30 58 Ag 5.5855 -2.2572 1.1928 0
M  V30 59 Fe 4.9127 -0.1791 2.1296 0
M  V30 60 Ag 4.3231 2.0322 2.7720 0
M  V30 61 Ag 6.6173 -2.7478 -2.0438 0
M  V30 62 Fe 5.7162 -1.5485 -3.8776 0
M  V30 63 Ag 4.5427 -0.1916 -5.4256 0
M  V30 64 Ag -2.0274 -5.0584 0.2068 0
M  V30 65 Fe -3.5317 -3.3650 -0.5038 0
M  V30 66 Ag -5.0504 -1.5720 -0.8478 0
M  V30 67 Ag -2.8381 5.0379 1.2271 0
M  V30 68 Fe -1.0871 5.3987 -0.3362 0
M  V30 69 Ag 0.6903 5.7093 -1.8802 0
M  V30 70 Ag -3.8803 2.8289 3.7201 0
M  V30 71 Fe -4.6688 0.6417 4.1992 0
M  V30 72 Ag -5.4584 -1.5511 4.6498 0
M  V30 73 Ba -0.5685 -4.0135 1.9375 0
M  V30 74 Ga 0.2048 -3.2235 0.9570 0
M  V30 75 Ba 0.9818 -2.4277 -0.0159 0
M  V30 76 Ba 2.2296 -0.6051 -5.5989 0
M  V30 77 Ga 1.7434 -1.5355 -4.5582 0
M  V30 78 Ba 1.2611 -2.4611 -3.5115 0
M  V30 79 Ba 4.1451 2.2850 -5.1756 0
M  V30 80 Ga 3.8972 3.4778 -4.3417 0
M  V30 81 Ba 3.6095 4.6554 -3.4989 0
M  V30 82 Ba -2.1240 -5.1969 3.5513 0
M  V30 83 Ga -3.3522 -4.5580 4.1204 0
M  V30 84 Ba -4.5730 -3.9239 4.7100 0
M  V30 85 Ba 1.7641 1.9201 -5.4561 0
M  V30 86 Ga 1.4796 3.1319 -4.6638 0
M  V30 87 Ba 1.2352 4.3394 -3.8518 0
M  V30 88 Ba -4.9690 3.7350 1.7193 0
M  V30 89 Ga -5.6112 2.6204 0.9969 0
M  V30 90 Ba -6.2535 1.5058 0.2744 0
M  V30 91 Ba -7.0884 -0.7587 0.6873 0
M  V30 92 Ga -7.2146 -1.5463 1.9341 0
M  V30 93 Ba -7.3117 -2.3369 3.1815 0
M  V30 94 Ba 3.1223 5.9644 -1.3819 0
M  V30 95 Ga 3.6991 5.5654 -0.0803 0
M  V30 96 Ba 4.2757 5.1656 1.2212 0
M  V30 97 Ba 5.0774 -4.0349 -0.6439 0
M  V30 98 Ga 3.6716 -3.9465 -1.0905 0
M  V30 99 Ba 2.2693 -3.8100 -1.5365 0
M  V30 END ATOM
M  V30 BEGIN BOND
M  V30 1 1 1 2
M  V30 2 1 1 3
M  V30 3 1 1 4
M  V30 4 1 1 5
M  V30 5 1 6 7
M  V30 6 1 6 8
M  V30 7 1 6 9
M  V30 8 1 6 10
M  V30 9 1 11 12
M  V30 10 1 11 13
M  V30 11 1 11 14
M  V30 12 1 11 15
M  V30 13 1 16 17
M  V30 14 1 16 18
M  V30 15 1 16 19
M  V30 16 1 16 20
M  V30 17 1 21 22
M  V30 18 1 21 23
M  V30 19 1 21 24
M  V30 20 1 21 25
M  V30 21 1 26 27
M  V30 22 1 26 28
M  V30 23 1 26 29
M  V30 24 1 26 30
M  V30 25 1 31 32
M  V30 26 1 31 33
M  V30 27 1 31 34
M  V30 28 1 31 35
M  V30 29 1 36 37
M  V30 30 1 36 38
M  V30 31 1 36 39
M  V30 32 1 36 40
M  V30 33 1 41 42
M  V30 34 1 41 43
M  V30 35 1 41 44
M  V30 36 1 41 45
M  V30 37 1 46 47
M  V30 38 1 47 48
M  V30 39 1 49 50
M  V30 40 1 50 51
M  V30 41 1 52 53
M  V30 42 1 53 54
M  V30 43 1 55 56
M  V30 44 1 56 57
M  V30 45 1 58 59
M  V30 46 1 59 60
M  V30 47 1 61 62
M  V30 48 1 62 63
M  V30 49 1 64 65
M  V30 50 1 65 66
M  V30 51 1 67 68
M  V30 52 1 68 69
M  V30 53 1 70 71
M  V30 54 1 71 72
M  V30 55 1 73 74
M  V30 56 1 74 75
M  V30 57 1 76 77
M  V30 58 1 77 78
M  V30 59 1 79 80
M  V30 60 1 80 81
M  V30 61 1 82 83
M  V30 62 1 83 84
M  V30 63 1 85 86
M  V30 64 1 86 87
M  V30 65 1 88 89
M  V30 66 1 89 90
M  V30 67 1 91 92
M  V30 68 1 92 93
M  V30 69 1 94 95
M  V30 70 1 95 96
M  V30 71 1 97 98
M  V30 72 1 98 99
M  V30 73 1 2 46
M  V30 74 1 3 70
M  V30 75 1 4 67
M  V30 76 1 5 88
M  V30 77 1 7 73
M  V30 78 1 8 55
M  V30 79 1 9 64
M  V30 80 1 10 82
M  V30 81 1 12 58
M  V30 82 1 13 97
M  V30 83 1 14 61
M  V30 84 1 15 52
M  V30 85 1 17 63
M  V30 86 1 18 79
M  V30 87 1 19 76
M  V30 88 1 20 85
M  V30 89 1 22 75
M  V30 90 1 23 99
M  V30 91 1 24 78
M  V30 92 1 25 49
M  V30 93 1 27 81
M  V30 94 1 28 94
M  V30 95 1 29 69
M  V30 96 1 30 87
M  V30 97 1 32 48
M  V30 98 1 33 96
M  V30 99 1 34 54
M  V30 100 1 35 60
M  V30 101 1 37 51
M  V30 102 1 38 91
M  V30 103 1 39 66
M  V30 104 1 40 90
M  V30 105 1 42 57
M  V30 106 1 43 72
M  V30 107 1 44 93
M  V30 108 1 45 84
M  V30 END BOND
M  V30 END CTAB
M  END

$$$$
