
     RDKit          3D

  0  0  0  0  0  0  0  0  0  0999 V3000
M  V30 BEGIN CTAB
M  V30 COUNTS 99 108 0 0 0
M  V30 BEGIN ATOM
M  V30 1 Pd 2.6997 1.6260 -0.5051 0
M  V30 2 Pb 2.3057 2.2268 0.1293 0
M  V30 3 Pb 3.3133 1.1765 0.1840 0
M  V30 4 Pb 2.0590 2.1445 -1.2127 0
M  V30 5 Pb 3.3450 1.0653 -0.9874 0
M  V30 6 Pd -2.4436 4.0794 -4.5069 0
M  V30 7 Pb -3.4394 4.2442 -4.7502 0
M  V30 8 Pb -2.3513 3.9446 -5.5145 0
M  V30 9 Pb -1.4308 3.9377 -3.9567 0
M  V30 10 Pb -2.9322 3.7510 -3.7867 0
M  V30 11 Pd -5.0982 -0.1500 -4.2621 0
M  V30 12 Pb -4.5808 -0.9999 -3.7821 0
M  V30 13 Pb -5.0212 -0.3105 -5.2429 0
M  V30 14 Pb -5.2614 0.4575 -3.5030 0
M  V30 15 Pb -5.5776 0.6999 -4.6263 0
M  V30 16 Pd -1.5039 4.3905 2.8251 0
M  V30 17 Pb -1.6899 5.2634 2.3291 0
M  V30 18 Pb -1.2192 3.5601 3.4087 0
M  V30 19 Pb -2.4439 4.5539 3.2169 0
M  V30 20 Pb -0.6113 4.2442 2.3487 0
M  V30 21 Pd -1.0082 -4.6663 -0.7194 0
M  V30 22 Pb -0.1870 -5.2145 -0.5465 0
M  V30 23 Pb -0.6541 -4.3133 0.2424 0
M  V30 24 Pb -1.8593 -4.0648 -1.1579 0
M  V30 25 Pb -0.9755 -5.4093 -1.4139 0
M  V30 26 Pd -4.9001 5.9863 -0.1534 0
M  V30 27 Pb -5.1239 5.8912 0.8373 0
M  V30 28 Pb -4.1707 6.6046 0.0971 0
M  V30 29 Pb -5.5926 5.4557 -0.6216 0
M  V30 30 Pb -4.4273 5.6052 -0.8743 0
M  V30 31 Pd 6.0950 -2.5795 3.1526 0
M  V30 32 Pb 5.5474 -2.7917 3.8679 0
M  V30 33 Pb 6.5320 -2.6874 2.3433 0
M  V30 34 Pb 6.5558 -3.1337 3.8393 0
M  V30 35 Pb 5.5581 -1.9129 2.5735 0
M  V30 36 Pd 4.4244 -5.4387 -0.9460 0
M  V30 37 Pb 4.5084 -4.7859 -0.2466 0
M  V30 38 Pb 4.2229 -6.0025 -1.7007 0
M  V30 39 Pb 5.1275 -4.6596 -1.2183 0
M  V30 40 Pb 3.7752 -6.0419 -0.6027 0
M  V30 41 Pd 1.5245 -3.0316 5.1164 0
M  V30 42 Pb 1.2537 -2.0887 4.8910 0
M  V30 43 Pb 1.9719 -3.8067 5.5622 0
M  V30 44 Pb 2.2203 -2.7124 5.7057 0
M  V30 45 Pb 1.1338 -3.4952 4.2906 0
M  V30 46 Ag -0.8143 2.9906 3.7924 0
M  V30 47 Fe 0.1132 0.8318 4.4274 0
M  V30 48 Ag 1.1221 -1.3298 4.9291 0
M  V30 49 Ag 3.9503 0.5998 -1.1165 0
M  V30 50 Fe 4.9647 -1.5987 -0.9482 0
M  V30 51 Ag 5.4949 -3.9371 -1.2868 0
M  V30 52 Ag -2.6262 3.7456 -6.1462 0
M  V30 53 Fe -4.2225 2.0702 -6.7091 0
M  V30 54 Ag -4.9752 -0.0534 -5.9326 0
M  V30 55 Ag 6.6278 -3.4965 4.4478 0
M  V30 56 Fe 4.8509 -4.0299 5.9263 0
M  V30 57 Ag 2.4771 -4.1393 5.9589 0
M  V30 58 Ag -0.7141 -5.9896 -1.7572 0
M  V30 59 Fe 1.5045 -6.8769 -2.0096 0
M  V30 60 Ag 3.8058 -6.4696 -2.0481 0
M  V30 61 Ag -5.4704 1.0829 -3.1865 0
M  V30 62 Fe -5.9120 3.4427 -2.8712 0
M  V30 63 Ag -5.9717 5.0062 -1.0812 0
M  V30 64 Ba 5.3133 -3.0061 4.4759 0
M  V30 65 Ga 4.0057 -3.2936 5.0050 0
M  V30 66 Ba 2.9005 -2.8514 5.8931 0
M  V30 67 Ba -1.7759 5.9960 2.0971 0
M  V30 68 Ga -2.7587 6.7150 1.3474 0
M  V30 69 Ba -3.6675 7.0946 0.3233 0
M  V30 70 Ba 3.9261 0.7525 0.4312 0
M  V30 71 Ga 4.5177 -0.3163 1.3336 0
M  V30 72 Ba 5.4073 -1.3286 2.0380 0
M  V30 73 Ba -4.2895 -1.6857 -3.3794 0
M  V30 74 Ga -3.3097 -2.6337 -2.5095 0
M  V30 75 Ba -2.5365 -3.7844 -1.6812 0
M  V30 76 Ba -3.1539 4.6828 3.4808 0
M  V30 77 Ga -4.2054 5.2956 2.6211 0
M  V30 78 Ba -5.2001 5.6831 1.5920 0
M  V30 79 Ba -3.4556 3.5791 -3.3571 0
M  V30 80 Ga -4.2555 4.5723 -2.6529 0
M  V30 81 Ba -4.2276 5.1873 -1.3858 0
M  V30 82 Ba 6.5309 -2.8013 1.6509 0
M  V30 83 Ga 5.5780 -3.7088 1.1218 0
M  V30 84 Ba 4.9515 -4.3514 0.0654 0
M  V30 85 Ba -0.2019 -4.4367 0.9284 0
M  V30 86 Ga 0.3480 -4.1942 2.3388 0
M  V30 87 Ba 0.9742 -3.9752 3.6815 0
M  V30 88 Ba -4.2177 4.1175 -4.9840 0
M  V30 89 Ga -5.1501 2.8307 -5.0202 0
M  V30 90 Ba -5.8115 1.4234 -4.8610 0
M  V30 91 Ba 2.1415 2.7783 0.5980 0
M  V30 92 Ga 0.9725 3.3251 1.2759 0
M  V30 93 Ba 0.0731 4.1269 2.0998 0
M  V30 94 Ba 1.6235 2.6699 -1.6925 0
M  V30 95 Ga 0.4223 3.1723 -2.5670 0
M  V30 96 Ba -0.6476 3.8965 -3.5122 0
M  V30 97 Ba 0.3387 -5.7088 -0.4068 0
M  V30 98 Ga 1.7912 -5.9051 -0.5742 0
M  V30 99 Ba 3.1737 -6.3778 -0.3272 0
M  V30 END ATOM
M  V30 BEGIN BOND
M  V30 1 1 1 2
M  V30 2 1 1 3
M  V30 3 1 1 4
M  V30 4 1 1 5
M  V30 5 1 6 7
M  V30 6 1 6 8
M  V30 7 1 6 9
M  V30 8 1 6 10
M  V30 9 1 11 12
M  V30 10 1 11 13
M  V30 11 1 11 14
M  V30 12 1 11 15
M  V30 13 1 16 17
M  V30 14 1 16 18
M  V30 15 1 16 19
M  V30 16 1 16 20
M  V30 17 1 21 22
M  V30 18 1 21 23
M  V30 19 1 21 24
M  V30 20 1 21 25
M  V30 21 1 26 27
M  V30 22 1 26 28
M  V30 23 1 26 29
M  V30 24 1 26 30
M  V30 25 1 31 32
M  V30 26 1 31 33
M  V30 27 1 31 34
M  V30 28 1 31 35
M  V30 29 1 36 37
M  V30 30 1 36 38
M  V30 31 1 36 39
M  V30 32 1 36 40
M  V30 33 1 41 42
M  V30 34 1 41 43
M  V30 35 1 41 44
M  V30 36 1 41 45
M  V30 37 1 46 47
M  V30 38 1 47 48
M  V30 39 1 49 50
M  V30 40 1 50 51
M  V30 41 1 52 53
M  V30 42 1 53 54
M  V30 43 1 55 56
M  V30 44 1 56 57
M  V30 45 1 58 59
M  V30 46 1 59 60
M  V30 47 1 61 62
M  V30 48 1 62 63
M  V30 49 1 64 65
M  V30 50 1 65 66
M  V30 51 1 67 68
M  V30 52 1 68 69
M  V30 53 1 70 71
M  V30 54 1 71 72
M  V30 55 1 73 74
M  V30 56 1 74 75
M  V30 57 1 76 77
M  V30 58 1 77 78
M  V30 59 1 79 80
M  V30 60 1 80 81
M  V30 61 1 82 83
M  V30 62 1 83 84
M  V30 63 1 85 86
M  V30 64 1 86 87
M  V30 65 1 88 89
M  V30 66 1 89 90
M  V30 67 1 91 92
M  V30 68 1 92 93
M  V30 69 1 94 95
M  V30 70 1 95 96
M  V30 71 1 97 98
M  V30 72 1 98 99
M  V30 73 1 2 91
M  V30 74 1 3 70
M  V30 75 1 4 94
M  V30 76 1 5 49
M  V30 77 1 7 88
M  V30 78 1 8 52
M  V30 79 1 9 96
M  V30 80 1 10 79
M  V30 81 1 12 73
M  V30 82 1 13 54
M  V30 83 1 14 61
M  V30 84 1 15 90
M  V30 85 1 17 67
M  V30 86 1 18 46
M  V30 87 1 19 76
M  V30 88 1 20 93
M  V30 89 1 22 97
M  V30 90 1 23 85
M  V30 91 1 24 75
M  V30 92 1 25 58
M  V30 93 1 27 78
M  V30 94 1 28 69
M  V30 95 1 29 63
M  V30 96 1 30 81
M  V30 97 1 32 64
M  V30 98 1 33 82
M  V30 99 1 34 55
M  V30 100 1 35 72
M  V30 101 1 37 84
M  V30 102 1 38 60
M  V30 103 1 39 51
M  V30 104 1 40 99
M  V30 105 1 42 48
M  V30 106 1 43 57
M  V30 107 1 44 66
M  V30 108 1 45 87
M  V30 END BOND
M  V30 END CTAB
M  END

$$$$
