
     RDKit          3D

  0  0  0  0  0  0  0  0  0  0999 V3000
M  V30 BEGIN CTAB
M  V30 COUNTS 99 108 0 0 0
M  V30 BEGIN ATOM
M  V30 1 Pd -3.4759 1.8016 -5.9634 0
M  V30 2 Pb -4.1716 1.0820 -5.9615 0
M  V30 3 Pb -3.0436 1.3162 -6.7195 0
M  V30 4 Pb -3.8417 2.2439 -5.1393 0
M  V30 5 Pb -2.7703 2.5040 -6.0008 0
M  V30 6 Pd -0.7623 3.9173 -2.0839 0
M  V30 7 Pb -0.7818 3.7684 -1.0703 0
M  V30 8 Pb -1.7611 3.8392 -2.1580 0
M  V30 9 Pb -0.7263 4.0893 -3.0651 0
M  V30 10 Pb 0.2271 3.9389 -2.0729 0
M  V30 11 Pd -4.1189 -1.6037 3.5453 0
M  V30 12 Pb -4.4462 -0.8331 4.0890 0
M  V30 13 Pb -3.6669 -1.9652 4.3616 0
M  V30 14 Pb -3.7690 -2.3421 2.9638 0
M  V30 15 Pb -4.5502 -1.2262 2.7306 0
M  V30 16 Pd 1.7215 4.0089 3.5603 0
M  V30 17 Pb 1.0686 4.1489 4.3095 0
M  V30 18 Pb 2.4906 4.1718 4.1801 0
M  V30 19 Pb 0.9603 3.8463 2.8938 0
M  V30 20 Pb 2.3911 3.9053 2.8387 0
M  V30 21 Pd 0.6873 -4.1388 -6.1457 0
M  V30 22 Pb -0.1925 -4.6135 -6.0879 0
M  V30 23 Pb 1.5513 -3.6361 -6.1538 0
M  V30 24 Pb 0.2985 -3.5135 -6.8197 0
M  V30 25 Pb 1.0923 -4.7189 -5.4385 0
M  V30 26 Pd -1.4701 1.0728 6.9976 0
M  V30 27 Pb -1.2511 2.0432 6.8876 0
M  V30 28 Pb -1.6774 0.0946 7.0355 0
M  V30 29 Pb -0.5430 0.8930 7.3211 0
M  V30 30 Pb -2.4035 1.2407 6.6856 0
M  V30 31 Pd 5.7337 0.9072 4.9474 0
M  V30 32 Pb 5.8222 -0.0688 4.7546 0
M  V30 33 Pb 6.2080 1.0673 4.0806 0
M  V30 34 Pb 5.1960 0.7210 5.7657 0
M  V30 35 Pb 5.5908 1.8830 5.1162 0
M  V30 36 Pd 5.8119 -2.9126 -1.1715 0
M  V30 37 Pb 6.2718 -2.0654 -0.8996 0
M  V30 38 Pb 5.8690 -3.1883 -0.2135 0
M  V30 39 Pb 5.2832 -3.7242 -1.4226 0
M  V30 40 Pb 5.7090 -2.6158 -2.1201 0
M  V30 41 Pd -4.1015 -3.0906 -3.6619 0
M  V30 42 Pb -3.7113 -3.7881 -4.2688 0
M  V30 43 Pb -4.5417 -2.6143 -4.4227 0
M  V30 44 Pb -4.4985 -2.4140 -3.0474 0
M  V30 45 Pb -3.7086 -3.5301 -2.8512 0
M  V30 46 Ag 2.2043 -3.2754 -6.0810 0
M  V30 47 Fe 3.9533 -2.7829 -4.5529 0
M  V30 48 Ag 5.5557 -2.4469 -2.8337 0
M  V30 49 Ag 6.5211 1.0941 3.3983 0
M  V30 50 Fe 6.6367 -0.0748 1.3321 0
M  V30 51 Ag 6.5703 -1.4375 -0.6142 0
M  V30 52 Ag 1.4583 -5.0816 -4.8929 0
M  V30 53 Fe 3.1376 -4.8132 -3.2339 0
M  V30 54 Ag 4.8388 -4.2789 -1.6640 0
M  V30 55 Ag 0.9568 3.9229 -1.9718 0
M  V30 56 Fe 2.3270 3.8713 -0.0630 0
M  V30 57 Ag 2.8131 3.8641 2.2363 0
M  V30 58 Ag 0.1547 0.7539 7.5527 0
M  V30 59 Fe 2.4653 0.6545 7.0266 0
M  V30 60 Ag 4.7354 0.6049 6.3418 0
M  V30 61 Ag -3.5227 -2.8482 2.4634 0
M  V30 62 Fe -3.4354 -3.4159 0.1551 0
M  V30 63 Ag -3.4645 -3.8000 -2.1922 0
M  V30 64 Ag -4.8344 -0.9812 2.0860 0
M  V30 65 Fe -4.8847 -1.3632 -0.2523 0
M  V30 66 Ag -4.7836 -1.9368 -2.5496 0
M  V30 67 Ag -2.6942 0.8863 -7.2204 0
M  V30 68 Fe -1.3416 -1.0538 -7.3965 0
M  V30 69 Ag -0.0066 -3.0106 -7.2818 0
M  V30 70 Ag 5.8765 -0.7814 4.5320 0
M  V30 71 Fe 5.9091 -2.1723 2.6097 0
M  V30 72 Ag 5.9114 -3.3047 0.5244 0
M  V30 73 Ba -3.3293 -2.1904 4.9931 0
M  V30 74 Ga -2.5787 -1.4489 6.0253 0
M  V30 75 Ba -1.8408 -0.6376 7.0132 0
M  V30 76 Ba -0.8499 3.6452 -0.3095 0
M  V30 77 Ga -0.1514 3.7113 1.0191 0
M  V30 78 Ba 0.3557 3.7009 2.4333 0
M  V30 79 Ba -0.8642 -4.9474 -6.0426 0
M  V30 80 Ga -2.1433 -4.6281 -5.3734 0
M  V30 81 Ba -3.4317 -4.3284 -4.7132 0
M  V30 82 Ba 3.1032 4.2907 4.5984 0
M  V30 83 Ga 4.2748 3.4619 4.9460 0
M  V30 84 Ba 5.4283 2.5994 5.2709 0
M  V30 85 Ba -2.2388 3.0277 -6.0086 0
M  V30 86 Ga -1.4538 3.6428 -4.9292 0
M  V30 87 Ba -0.7055 4.2147 -3.8011 0
M  V30 88 Ba 0.5990 4.2860 4.8827 0
M  V30 89 Ga -0.2400 3.5121 5.8220 0
M  V30 90 Ba -1.0892 2.7681 6.7761 0
M  V30 91 Ba -4.0584 2.5775 -4.4978 0
M  V30 92 Ga -3.3040 3.1764 -3.3711 0
M  V30 93 Ba -2.5039 3.7630 -2.2696 0
M  V30 94 Ba -4.6536 -0.2415 4.4974 0
M  V30 95 Ga -3.9163 0.5712 5.4789 0
M  V30 96 Ba -3.1072 1.3301 6.4469 0
M  V30 97 Ba -4.6596 0.5149 -6.0303 0
M  V30 98 Ga -4.7840 -0.8502 -5.4826 0
M  V30 99 Ba -4.9141 -2.2158 -4.9376 0
M  V30 END ATOM
M  V30 BEGIN BOND
M  V30 1 1 1 2
M  V30 2 1 1 3
M  V30 3 1 1 4
M  V30 4 1 1 5
M  V30 5 1 6 7
M  V30 6 1 6 8
M  V30 7 1 6 9
M  V30 8 1 6 10
M  V30 9 1 11 12
M  V30 10 1 11 13
M  V30 11 1 11 14
M  V30 12 1 11 15
M  V30 13 1 16 17
M  V30 14 1 16 18
M  V30 15 1 16 19
M  V30 16 1 16 20
M  V30 17 1 21 22
M  V30 18 1 21 23
M  V30 19 1 21 24
M  V30 20 1 21 25
M  V30 21 1 26 27
M  V30 22 1 26 28
M  V30 23 1 26 29
M  V30 24 1 26 30
M  V30 25 1 31 32
M  V30 26 1 31 33
M  V30 27 1 31 34
M  V30 28 1 31 35
M  V30 29 1 36 37
M  V30 30 1 36 38
M  V30 31 1 36 39
M  V30 32 1 36 40
M  V30 33 1 41 42
M  V30 34 1 41 43
M  V30 35 1 41 44
M  V30 36 1 41 45
M  V30 37 1 46 47
M  V30 38 1 47 48
M  V30 39 1 49 50
M  V30 40 1 50 51
M  V30 41 1 52 53
M  V30 42 1 53 54
M  V30 43 1 55 56
M  V30 44 1 56 57
M  V30 45 1 58 59
M  V30 46 1 59 60
M  V30 47 1 61 62
M  V30 48 1 62 63
M  V30 49 1 64 65
M  V30 50 1 65 66
M  V30 51 1 67 68
M  V30 52 1 68 69
M  V30 53 1 70 71
M  V30 54 1 71 72
M  V30 55 1 73 74
M  V30 56 1 74 75
M  V30 57 1 76 77
M  V30 58 1 77 78
M  V30 59 1 79 80
M  V30 60 1 80 81
M  V30 61 1 82 83
M  V30 62 1 83 84
M  V30 63 1 85 86
M  V30 64 1 86 87
M  V30 65 1 88 89
M  V30 66 1 89 90
M  V30 67 1 91 92
M  V30 68 1 92 93
M  V30 69 1 94 95
M  V30 70 1 95 96
M  V30 71 1 97 98
M  V30 72 1 98 99
M  V30 73 1 2 97
M  V30 74 1 3 67
M  V30 75 1 4 91
M  V30 76 1 5 85
M  V30 77 1 7 76
M  V30 78 1 8 93
M  V30 79 1 9 87
M  V30 80 1 10 55
M  V30 81 1 12 94
M  V30 82 1 13 73
M  V30 83 1 14 61
M  V30 84 1 15 64
M  V30 85 1 17 88
M  V30 86 1 18 82
M  V30 87 1 19 78
M  V30 88 1 20 57
M  V30 89 1 22 79
M  V30 90 1 23 46
M  V30 91 1 24 69
M  V30 92 1 25 52
M  V30 93 1 27 90
M  V30 94 1 28 75
M  V30 95 1 29 58
M  V30 96 1 30 96
M  V30 97 1 32 70
M  V30 98 1 33 49
M  V30 99 1 34 60
M  V30 100 1 35 84
M  V30 101 1 37 51
M  V30 102 1 38 72
M  V30 103 1 39 54
M  V30 104 1 40 48
M  V30 105 1 42 81
M  V30 106 1 43 99
M  V30 107 1 44 66
M  V30 108 1 45 63
M  V30 END BOND
M  V30 END CTAB
M  END

$$$$
