
     RDKit          3D

  0  0  0  0  0  0  0  0  0  0999 V3000
M  V30 BEGIN CTAB
M  V30 COUNTS 99 108 0 0 0
M  V30 BEGIN ATOM
M  V30 1 Pd 4.3422 -1.0302 -3.2157 0
M  V30 2 Pb 3.4814 -0.5308 -3.1225 0
M  V30 3 Pb 4.1671 -1.1162 -4.1976 0
M  V30 4 Pb 5.1869 -1.5500 -3.3458 0
M  V30 5 Pb 4.5447 -0.9459 -2.2364 0
M  V30 6 Pd 4.8011 -5.1510 -6.0530 0
M  V30 7 Pb 3.9935 -5.5786 -6.4611 0
M  V30 8 Pb 5.5619 -4.7107 -5.5769 0
M  V30 9 Pb 4.5552 -4.2645 -6.4398 0
M  V30 10 Pb 4.9888 -6.0102 -5.5830 0
M  V30 11 Pd -5.4078 0.1480 2.9723 0
M  V30 12 Pb -6.1018 0.8269 2.7284 0
M  V30 13 Pb -4.6540 -0.4725 3.1964 0
M  V30 14 Pb -5.1611 0.7012 3.7668 0
M  V30 15 Pb -5.6765 -0.4130 2.1867 0
M  V30 16 Pd -1.6416 6.2099 5.3405 0
M  V30 17 Pb -0.8531 5.9377 5.8963 0
M  V30 18 Pb -2.4083 6.4662 4.7508 0
M  V30 19 Pb -1.0552 6.8748 4.8837 0
M  V30 20 Pb -2.2064 5.4893 5.7358 0
M  V30 21 Pd -3.3941 -0.7945 -1.8725 0
M  V30 22 Pb -3.7754 0.1287 -1.9019 0
M  V30 23 Pb -3.0840 -1.7418 -1.9598 0
M  V30 24 Pb -4.2420 -1.1261 -1.4618 0
M  V30 25 Pb -2.5218 -0.4331 -2.2025 0
M  V30 26 Pd 1.3351 -6.9955 -3.2595 0
M  V30 27 Pb 1.2397 -7.0581 -4.2527 0
M  V30 28 Pb 1.4731 -6.8387 -2.2854 0
M  V30 29 Pb 2.2400 -7.4118 -3.3474 0
M  V30 30 Pb 0.4354 -6.5732 -3.1569 0
M  V30 31 Pd -4.4013 4.4281 0.6339 0
M  V30 32 Pb -4.5193 3.8161 -0.1461 0
M  V30 33 Pb -3.4558 4.5750 0.3419 0
M  V30 34 Pb -5.3190 4.1845 0.9489 0
M  V30 35 Pb -4.3304 5.1121 1.3656 0
M  V30 36 Pd 2.1401 -1.3849 2.0620 0
M  V30 37 Pb 2.3187 -0.5489 2.5847 0
M  V30 38 Pb 1.2660 -1.5381 2.5296 0
M  V30 39 Pb 3.0017 -1.2358 1.5722 0
M  V30 40 Pb 2.0490 -2.2979 1.6653 0
M  V30 41 Pd 2.3041 4.5553 3.3372 0
M  V30 42 Pb 2.0755 5.5248 3.2618 0
M  V30 43 Pb 2.3672 4.6726 4.3263 0
M  V30 44 Pb 2.0568 4.4574 2.3771 0
M  V30 45 Pb 2.5157 3.5842 3.4594 0
M  V30 46 Ag -4.9753 1.1185 4.3605 0
M  V30 47 Fe -3.8287 3.0039 5.2326 0
M  V30 48 Ag -2.6358 4.9210 5.9617 0
M  V30 49 Ag -2.7364 4.5971 0.1287 0
M  V30 50 Fe -0.4550 4.5300 0.7811 0
M  V30 51 Ag 1.7298 4.4624 1.7058 0
M  V30 52 Ag -2.9339 -2.4678 -2.0795 0
M  V30 53 Fe -1.5385 -4.3302 -2.5551 0
M  V30 54 Ag -0.2308 -6.2567 -3.0245 0
M  V30 55 Ag 1.5644 -6.6448 -1.5705 0
M  V30 56 Fe 1.7852 -4.8257 -0.0622 0
M  V30 57 Ag 2.0057 -3.0180 1.4597 0
M  V30 58 Ag 2.8249 -0.1689 -3.1079 0
M  V30 59 Fe 0.4775 -0.1677 -2.7460 0
M  V30 60 Ag -1.8715 -0.1143 -2.3992 0
M  V30 61 Ag -4.0544 -0.8881 3.3787 0
M  V30 62 Fe -1.7265 -1.2982 3.1185 0
M  V30 63 Ag 0.6026 -1.6959 2.8496 0
M  V30 64 Ba 2.5407 0.0042 3.0434 0
M  V30 65 Ga 2.5572 1.4662 3.2520 0
M  V30 66 Ba 2.6919 2.8807 3.6555 0
M  V30 67 Ba 5.0493 -6.6383 -5.1833 0
M  V30 68 Ga 4.0348 -7.2323 -4.2974 0
M  V30 69 Ba 2.9234 -7.7012 -3.4533 0
M  V30 70 Ba 4.0586 -1.1993 -4.9361 0
M  V30 71 Ga 4.1950 -2.3578 -5.8380 0
M  V30 72 Ba 4.3593 -3.5748 -6.6536 0
M  V30 73 Ba -0.5674 7.3017 4.5126 0
M  V30 74 Ga 0.6688 6.8587 3.8497 0
M  V30 75 Ba 1.8607 6.2419 3.2470 0
M  V30 76 Ba 5.7997 -1.9597 -3.4855 0
M  V30 77 Ga 5.9971 -3.1569 -4.3241 0
M  V30 78 Ba 6.0901 -4.3501 -5.1859 0
M  V30 79 Ba 4.7500 -0.8903 -1.5136 0
M  V30 80 Ga 4.1594 -1.0065 -0.1631 0
M  V30 81 Ba 3.6548 -1.1037 1.2234 0
M  V30 82 Ba 3.3662 -5.9157 -6.6988 0
M  V30 83 Ga 2.2662 -6.5086 -5.9141 0
M  V30 84 Ba 1.2448 -7.0589 -5.0026 0
M  V30 85 Ba -6.5767 1.3764 2.5371 0
M  V30 86 Ga -6.3355 2.6702 1.8685 0
M  V30 87 Ba -5.9829 3.9352 1.1942 0
M  V30 88 Ba -4.0997 0.7963 -2.0046 0
M  V30 89 Ga -4.3299 2.0824 -1.3230 0
M  V30 90 Ba -4.6347 3.4120 -0.7655 0
M  V30 91 Ba -5.8997 -0.8271 1.6000 0
M  V30 92 Ga -5.3895 -1.1018 0.2428 0
M  V30 93 Ba -4.8593 -1.3619 -1.1095 0
M  V30 94 Ba -0.2253 5.7432 6.2624 0
M  V30 95 Ga 1.0672 5.2559 5.7428 0
M  V30 96 Ba 2.2865 4.7783 5.0627 0
M  V30 97 Ba -2.9836 6.6581 4.3083 0
M  V30 98 Ga -3.6310 6.1224 3.0920 0
M  V30 99 Ba -4.3418 5.6633 1.8801 0
M  V30 END ATOM
M  V30 BEGIN BOND
M  V30 1 1 1 2
M  V30 2 1 1 3
M  V30 3 1 1 4
M  V30 4 1 1 5
M  V30 5 1 6 7
M  V30 6 1 6 8
M  V30 7 1 6 9
M  V30 8 1 6 10
M  V30 9 1 11 12
M  V30 10 1 11 13
M  V30 11 1 11 14
M  V30 12 1 11 15
M  V30 13 1 16 17
M  V30 14 1 16 18
M  V30 15 1 16 19
M  V30 16 1 16 20
M  V30 17 1 21 22
M  V30 18 1 21 23
M  V30 19 1 21 24
M  V30 20 1 21 25
M  V30 21 1 26 27
M  V30 22 1 26 28
M  V30 23 1 26 29
M  V30 24 1 26 30
M  V30 25 1 31 32
M  V30 26 1 31 33
M  V30 27 1 31 34
M  V30 28 1 31 35
M  V30 29 1 36 37
M  V30 30 1 36 38
M  V30 31 1 36 39
M  V30 32 1 36 40
M  V30 33 1 41 42
M  V30 34 1 41 43
M  V30 35 1 41 44
M  V30 36 1 41 45
M  V30 37 1 46 47
M  V30 38 1 47 48
M  V30 39 1 49 50
M  V30 40 1 50 51
M  V30 41 1 52 53
M  V30 42 1 53 54
M  V30 43 1 55 56
M  V30 44 1 56 57
M  V30 45 1 58 59
M  V30 46 1 59 60
M  V30 47 1 61 62
M  V30 48 1 62 63
M  V30 49 1 64 65
M  V30 50 1 65 66
M  V30 51 1 67 68
M  V30 52 1 68 69
M  V30 53 1 70 71
M  V30 54 1 71 72
M  V30 55 1 73 74
M  V30 56 1 74 75
M  V30 57 1 76 77
M  V30 58 1 77 78
M  V30 59 1 79 80
M  V30 60 1 80 81
M  V30 61 1 82 83
M  V30 62 1 83 84
M  V30 63 1 85 86
M  V30 64 1 86 87
M  V30 65 1 88 89
M  V30 66 1 89 90
M  V30 67 1 91 92
M  V30 68 1 92 93
M  V30 69 1 94 95
M  V30 70 1 95 96
M  V30 71 1 97 98
M  V30 72 1 98 99
M  V30 73 1 2 58
M  V30 74 1 3 70
M  V30 75 1 4 76
M  V30 76 1 5 79
M  V30 77 1 7 82
M  V30 78 1 8 78
M  V30 79 1 9 72
M  V30 80 1 10 67
M  V30 81 1 12 85
M  V30 82 1 13 61
M  V30 83 1 14 46
M  V30 84 1 15 91
M  V30 85 1 17 94
M  V30 86 1 18 97
M  V30 87 1 19 73
M  V30 88 1 20 48
M  V30 89 1 22 88
M  V30 90 1 23 52
M  V30 91 1 24 93
M  V30 92 1 25 60
M  V30 93 1 27 84
M  V30 94 1 28 55
M  V30 95 1 29 69
M  V30 96 1 30 54
M  V30 97 1 32 90
M  V30 98 1 33 49
M  V30 99 1 34 87
M  V30 100 1 35 99
M  V30 101 1 37 64
M  V30 102 1 38 63
M  V30 103 1 39 81
M  V30 104 1 40 57
M  V30 105 1 42 75
M  V30 106 1 43 96
M  V30 107 1 44 51
M  V30 108 1 45 66
M  V30 END BOND
M  V30 END CTAB
M  END

$$$$
