
     RDKit          3D

  0  0  0  0  0  0  0  0  0  0999 V3000
M  V30 BEGIN CTAB
M  V30 COUNTS 99 108 0 0 0
M  V30 BEGIN ATOM
M  V30 1 Pd 1.0820 4.5729 0.3449 0
M  V30 2 Pb 1.8317 4.6340 -0.3097 0
M  V30 3 Pb 1.4541 3.6804 0.5858 0
M  V30 4 Pb 0.7519 5.4838 0.0826 0
M  V30 5 Pb 0.3279 4.4155 0.9853 0
M  V30 6 Pd 3.3818 -6.3293 5.8885 0
M  V30 7 Pb 2.7919 -6.8077 5.2405 0
M  V30 8 Pb 4.1814 -6.4976 5.3177 0
M  V30 9 Pb 2.5758 -6.0722 6.4118 0
M  V30 10 Pb 3.9081 -5.6495 6.4198 0
M  V30 11 Pd -0.3880 -2.7739 -4.6612 0
M  V30 12 Pb 0.5565 -2.4151 -4.7997 0
M  V30 13 Pb -0.1678 -3.0505 -3.7202 0
M  V30 14 Pb -1.3520 -3.0074 -4.5531 0
M  V30 15 Pb -0.5902 -2.5553 -5.6087 0
M  V30 16 Pd -6.1663 1.2378 -3.0017 0
M  V30 17 Pb -6.0387 0.3491 -3.4381 0
M  V30 18 Pb -6.0394 1.7496 -3.8510 0
M  V30 19 Pb -6.1277 0.7573 -2.1322 0
M  V30 20 Pb -6.2069 2.1185 -2.5346 0
M  V30 21 Pd -1.8168 -3.7766 1.1238 0
M  V30 22 Pb -1.2742 -4.5352 1.4960 0
M  V30 23 Pb -1.2255 -3.7801 0.3094 0
M  V30 24 Pb -2.4497 -3.0833 0.7843 0
M  V30 25 Pb -2.3586 -3.6973 1.9613 0
M  V30 26 Pd -1.8919 6.7787 -3.6753 0
M  V30 27 Pb -2.4604 6.3191 -4.3602 0
M  V30 28 Pb -1.1279 6.8036 -4.3209 0
M  V30 29 Pb -1.3378 7.1666 -2.9369 0
M  V30 30 Pb -2.6615 6.6805 -3.0486 0
M  V30 31 Pd 2.7448 1.9186 -6.4048 0
M  V30 32 Pb 3.1897 2.2807 -5.5883 0
M  V30 33 Pb 2.5804 2.8720 -6.6537 0
M  V30 34 Pb 2.2702 1.6022 -7.2180 0
M  V30 35 Pb 2.8027 0.9554 -6.0733 0
M  V30 36 Pd -1.2377 -0.6258 5.4219 0
M  V30 37 Pb -1.9982 -1.1489 5.0305 0
M  V30 38 Pb -0.4451 -0.1632 5.8247 0
M  V30 39 Pb -1.0376 -1.4330 5.9716 0
M  V30 40 Pb -1.4527 0.2018 4.8950 0
M  V30 41 Pd 4.2852 -1.0165 5.0169 0
M  V30 42 Pb 4.9817 -1.4833 4.4774 0
M  V30 43 Pb 4.0101 -0.5111 4.2027 0
M  V30 44 Pb 3.5964 -0.5255 5.5572 0
M  V30 45 Pb 4.4973 -1.6488 5.7795 0
M  V30 46 Ag 2.3085 -7.0292 4.7127 0
M  V30 47 Fe 0.6884 -6.1465 3.2131 0
M  V30 48 Ag -0.9017 -5.1342 1.7638 0
M  V30 49 Ag 2.3903 4.5643 -0.8015 0
M  V30 50 Fe 3.0232 3.6357 -2.8908 0
M  V30 51 Ag 3.4730 2.6429 -4.9981 0
M  V30 52 Ag -5.9941 0.3829 -1.5025 0
M  V30 53 Fe -4.4897 -1.1235 -0.4548 0
M  V30 54 Ag -3.0271 -2.6204 0.6630 0
M  V30 55 Ag -5.8423 2.2106 -4.4089 0
M  V30 56 Fe -4.4259 4.0813 -4.7838 0
M  V30 57 Ag -2.9215 5.9208 -4.8005 0
M  V30 58 Ag -0.6474 -2.3190 -6.3076 0
M  V30 59 Fe 0.3982 -0.5723 -7.4890 0
M  V30 60 Ag 1.8427 1.2709 -7.7215 0
M  V30 61 Ag 4.7670 -6.3979 4.8750 0
M  V30 62 Fe 5.5694 -4.3024 4.1607 0
M  V30 63 Ag 5.4487 -1.9496 4.1359 0
M  V30 64 Ag -6.1498 2.7966 -2.2257 0
M  V30 65 Fe -4.8092 4.7512 -2.2908 0
M  V30 66 Ag -3.2595 6.5125 -2.6337 0
M  V30 67 Ag -2.0970 -3.0700 -4.5328 0
M  V30 68 Fe -4.0747 -1.8201 -4.1373 0
M  V30 69 Ag -5.8717 -0.3405 -3.6767 0
M  V30 70 Ag 1.9765 -5.7922 6.7532 0
M  V30 71 Fe 0.4762 -3.9608 6.6581 0
M  V30 72 Ag -0.8938 -2.0493 6.3681 0
M  V30 73 Ag -0.2179 4.2079 1.4596 0
M  V30 74 Fe -0.9432 2.5496 3.0038 0
M  V30 75 Ag -1.5966 0.8475 4.5323 0
M  V30 76 Ag 1.7803 3.0241 0.7284 0
M  V30 77 Fe 2.7651 1.4483 2.2022 0
M  V30 78 Ag 3.7745 -0.2154 3.5580 0
M  V30 79 Ag -0.5749 6.7510 -4.8255 0
M  V30 80 Fe 0.9678 5.2738 -5.8636 0
M  V30 81 Ag 2.4060 3.5961 -6.7334 0
M  V30 82 Ba -2.7892 -3.5424 2.5572 0
M  V30 83 Ga -2.6681 -2.5831 3.6758 0
M  V30 84 Ba -2.5349 -1.6186 4.7885 0
M  V30 85 Ba 4.2593 -5.0815 6.7869 0
M  V30 86 Ga 4.4579 -3.6225 6.5415 0
M  V30 87 Ba 4.6690 -2.1617 6.3186 0
M  V30 88 Ba 1.2691 -2.1466 -4.9129 0
M  V30 89 Ga 1.9995 -0.9212 -5.3754 0
M  V30 90 Ba 2.8520 0.2316 -5.8148 0
M  V30 91 Ba 0.5526 6.1797 -0.1281 0
M  V30 92 Ga -0.2014 6.7971 -1.2405 0
M  V30 93 Ba -0.9534 7.4285 -2.3464 0
M  V30 94 Ba 0.1563 0.1574 6.1435 0
M  V30 95 Ga 1.6232 0.0023 6.0334 0
M  V30 96 Ba 3.0946 -0.1246 5.9518 0
M  V30 97 Ba 0.0584 -3.2925 -3.0420 0
M  V30 98 Ga -0.4153 -3.5135 -1.6557 0
M  V30 99 Ba -0.6965 -3.8036 -0.2304 0
M  V30 END ATOM
M  V30 BEGIN BOND
M  V30 1 1 1 2
M  V30 2 1 1 3
M  V30 3 1 1 4
M  V30 4 1 1 5
M  V30 5 1 6 7
M  V30 6 1 6 8
M  V30 7 1 6 9
M  V30 8 1 6 10
M  V30 9 1 11 12
M  V30 10 1 11 13
M  V30 11 1 11 14
M  V30 12 1 11 15
M  V30 13 1 16 17
M  V30 14 1 16 18
M  V30 15 1 16 19
M  V30 16 1 16 20
M  V30 17 1 21 22
M  V30 18 1 21 23
M  V30 19 1 21 24
M  V30 20 1 21 25
M  V30 21 1 26 27
M  V30 22 1 26 28
M  V30 23 1 26 29
M  V30 24 1 26 30
M  V30 25 1 31 32
M  V30 26 1 31 33
M  V30 27 1 31 34
M  V30 28 1 31 35
M  V30 29 1 36 37
M  V30 30 1 36 38
M  V30 31 1 36 39
M  V30 32 1 36 40
M  V30 33 1 41 42
M  V30 34 1 41 43
M  V30 35 1 41 44
M  V30 36 1 41 45
M  V30 37 1 46 47
M  V30 38 1 47 48
M  V30 39 1 49 50
M  V30 40 1 50 51
M  V30 41 1 52 53
M  V30 42 1 53 54
M  V30 43 1 55 56
M  V30 44 1 56 57
M  V30 45 1 58 59
M  V30 46 1 59 60
M  V30 47 1 61 62
M  V30 48 1 62 63
M  V30 49 1 64 65
M  V30 50 1 65 66
M  V30 51 1 67 68
M  V30 52 1 68 69
M  V30 53 1 70 71
M  V30 54 1 71 72
M  V30 55 1 73 74
M  V30 56 1 74 75
M  V30 57 1 76 77
M  V30 58 1 77 78
M  V30 59 1 79 80
M  V30 60 1 80 81
M  V30 61 1 82 83
M  V30 62 1 83 84
M  V30 63 1 85 86
M  V30 64 1 86 87
M  V30 65 1 88 89
M  V30 66 1 89 90
M  V30 67 1 91 92
M  V30 68 1 92 93
M  V30 69 1 94 95
M  V30 70 1 95 96
M  V30 71 1 97 98
M  V30 72 1 98 99
M  V30 73 1 2 49
M  V30 74 1 3 76
M  V30 75 1 4 91
M  V30 76 1 5 73
M  V30 77 1 7 46
M  V30 78 1 8 61
M  V30 79 1 9 70
M  V30 80 1 10 85
M  V30 81 1 12 88
M  V30 82 1 13 97
M  V30 83 1 14 67
M  V30 84 1 15 58
M  V30 85 1 17 69
M  V30 86 1 18 55
M  V30 87 1 19 52
M  V30 88 1 20 64
M  V30 89 1 22 48
M  V30 90 1 23 99
M  V30 91 1 24 54
M  V30 92 1 25 82
M  V30 93 1 27 57
M  V30 94 1 28 79
M  V30 95 1 29 93
M  V30 96 1 30 66
M  V30 97 1 32 51
M  V30 98 1 33 81
M  V30 99 1 34 60
M  V30 100 1 35 90
M  V30 101 1 37 84
M  V30 102 1 38 94
M  V30 103 1 39 72
M  V30 104 1 40 75
M  V30 105 1 42 63
M  V30 106 1 43 78
M  V30 107 1 44 96
M  V30 108 1 45 87
M  V30 END BOND
M  V30 END CTAB
M  END

$$$$
