
     RDKit          3D

  0  0  0  0  0  0  0  0  0  0999 V3000
M  V30 BEGIN CTAB
M  V30 COUNTS 99 108 0 0 0
M  V30 BEGIN ATOM
M  V30 1 Pd -5.0945 -0.4836 -1.4722 0
M  V30 2 Pb -4.9892 0.4728 -1.1975 0
M  V30 3 Pb -5.2714 -1.4327 -1.7451 0
M  V30 4 Pb -5.1224 -0.7411 -0.5058 0
M  V30 5 Pb -5.0348 -0.2029 -2.4312 0
M  V30 6 Pd 2.6941 -5.5404 -2.2881 0
M  V30 7 Pb 2.5347 -4.8698 -1.5641 0
M  V30 8 Pb 2.6985 -6.1726 -3.0599 0
M  V30 9 Pb 3.0604 -4.8191 -2.8696 0
M  V30 10 Pb 2.1531 -6.2221 -1.7953 0
M  V30 11 Pd 2.9558 6.5036 1.7938 0
M  V30 12 Pb 2.1724 6.7531 1.2292 0
M  V30 13 Pb 3.4257 6.1618 0.9807 0
M  V30 14 Pb 3.7309 6.2168 2.3574 0
M  V30 15 Pb 2.4245 6.7486 2.6075 0
M  V30 16 Pd 5.0409 0.5663 5.3736 0
M  V30 17 Pb 5.5356 1.4226 5.2419 0
M  V30 18 Pb 4.4182 -0.2149 5.4256 0
M  V30 19 Pb 5.5248 0.1541 4.6031 0
M  V30 20 Pb 4.4603 1.0140 6.0500 0
M  V30 21 Pd 3.0419 0.0414 -1.4492 0
M  V30 22 Pb 2.6257 -0.8046 -1.1101 0
M  V30 23 Pb 3.4629 0.9192 -1.6750 0
M  V30 24 Pb 3.8823 -0.2454 -0.9906 0
M  V30 25 Pb 2.1790 0.3952 -1.8234 0
M  V30 26 Pd -2.0495 0.7901 5.4892 0
M  V30 27 Pb -1.4247 0.0076 5.4642 0
M  V30 28 Pb -2.6201 1.6121 5.4972 0
M  V30 29 Pb -2.7217 0.3083 4.9244 0
M  V30 30 Pb -1.3617 1.2482 6.0500 0
M  V30 31 Pd -2.0721 5.5165 2.6638 0
M  V30 32 Pb -2.7267 5.1117 2.0252 0
M  V30 33 Pb -2.5574 5.0916 3.4320 0
M  V30 34 Pb -1.3938 5.9311 3.2763 0
M  V30 35 Pb -1.6162 5.9614 1.8944 0
M  V30 36 Pd -1.1753 -0.3761 -5.3124 0
M  V30 37 Pb -0.8697 0.2488 -4.5941 0
M  V30 38 Pb -1.5011 -1.0530 -5.9732 0
M  V30 39 Pb -0.2345 -0.7065 -5.3810 0
M  V30 40 Pb -2.1207 -0.0575 -5.2232 0
M  V30 41 Pd -3.1771 -7.1916 -4.8097 0
M  V30 42 Pb -2.3479 -7.5715 -5.2158 0
M  V30 43 Pb -3.9284 -6.7200 -4.3472 0
M  V30 44 Pb -3.2975 -6.6025 -5.6062 0
M  V30 45 Pb -2.9090 -7.6465 -3.9607 0
M  V30 46 Ag -4.9563 1.1941 -0.9922 0
M  V30 47 Fe -4.0554 2.9848 0.2825 0
M  V30 48 Ag -3.2037 4.8226 1.5234 0
M  V30 49 Ag 5.8057 -0.1181 3.9646 0
M  V30 50 Fe 5.2854 -0.3545 1.6609 0
M  V30 51 Ag 4.4708 -0.4341 -0.5671 0
M  V30 52 Ag 3.8540 -0.7096 5.4439 0
M  V30 53 Fe 1.4787 -0.7825 5.4573 0
M  V30 54 Ag -0.8826 -0.5132 5.4641 0
M  V30 55 Ag 1.6372 -6.7075 -1.5485 0
M  V30 56 Fe -0.5025 -7.4727 -2.2384 0
M  V30 57 Ag -2.5633 -7.8908 -3.3419 0
M  V30 58 Ag 2.5385 -6.6260 -3.6315 0
M  V30 59 Fe 0.5687 -7.3710 -4.7200 0
M  V30 60 Ag -1.6595 -7.7816 -5.4181 0
M  V30 61 Ag 3.9344 1.3341 6.4736 0
M  V30 62 Fe 1.5748 1.5381 6.6067 0
M  V30 63 Ag -0.7920 1.5284 6.4466 0
M  V30 64 Ag 4.3027 5.9562 2.7672 0
M  V30 65 Fe 5.1720 4.1005 3.9654 0
M  V30 66 Ag 5.7964 2.1075 5.0933 0
M  V30 67 Ag 3.1884 -4.2561 -3.3424 0
M  V30 68 Fe 1.9684 -2.5433 -4.4399 0
M  V30 69 Ag 0.4723 -0.9554 -5.3716 0
M  V30 70 Ag -5.1219 -0.9031 0.2270 0
M  V30 71 Fe -4.1855 -0.4978 2.3729 0
M  V30 72 Ag -3.2197 -0.0606 4.4994 0
M  V30 73 Ag -1.7952 -1.5889 -6.4085 0
M  V30 74 Fe -2.5872 -3.8271 -6.4369 0
M  V30 75 Ag -3.2857 -6.0763 -6.1379 0
M  V30 76 Ag -5.4476 -2.1369 -1.9464 0
M  V30 77 Fe -4.9575 -4.2296 -2.9627 0
M  V30 78 Ag -4.4452 -6.3146 -3.9838 0
M  V30 79 Ag 3.7281 5.8306 0.3804 0
M  V30 80 Fe 3.8291 3.7712 -0.7962 0
M  V30 81 Ag 3.7516 1.6049 -1.7644 0
M  V30 82 Ba 2.3314 -4.3595 -1.0531 0
M  V30 83 Ga 2.3684 -2.8873 -0.9388 0
M  V30 84 Ba 2.3696 -1.4209 -0.7624 0
M  V30 85 Ba 1.5549 0.7511 -2.0557 0
M  V30 86 Ga 0.4760 0.6794 -3.0641 0
M  V30 87 Ba -0.6410 0.6908 -4.0330 0
M  V30 88 Ba 1.9841 6.8863 3.2020 0
M  V30 89 Ga 0.5617 6.5846 3.4760 0
M  V30 90 Ba -0.8645 6.2599 3.7003 0
M  V30 91 Ba 1.5653 6.9122 0.8235 0
M  V30 92 Ga 0.1390 6.6244 1.0462 0
M  V30 93 Ba -1.2707 6.3065 1.3268 0
M  V30 94 Ba -4.9786 0.0363 -3.1411 0
M  V30 95 Ga -3.9030 0.0916 -4.1518 0
M  V30 96 Ba -2.8399 0.1558 -5.1752 0
M  V30 97 Ba -3.0215 2.2465 5.5040 0
M  V30 98 Ga -2.9778 3.5118 4.7420 0
M  V30 99 Ba -2.9541 4.7862 3.9945 0
M  V30 END ATOM
M  V30 BEGIN BOND
M  V30 1 1 1 2
M  V30 2 1 1 3
M  V30 3 1 1 4
M  V30 4 1 1 5
M  V30 5 1 6 7
M  V30 6 1 6 8
M  V30 7 1 6 9
M  V30 8 1 6 10
M  V30 9 1 11 12
M  V30 10 1 11 13
M  V30 11 1 11 14
M  V30 12 1 11 15
M  V30 13 1 16 17
M  V30 14 1 16 18
M  V30 15 1 16 19
M  V30 16 1 16 20
M  V30 17 1 21 22
M  V30 18 1 21 23
M  V30 19 1 21 24
M  V30 20 1 21 25
M  V30 21 1 26 27
M  V30 22 1 26 28
M  V30 23 1 26 29
M  V30 24 1 26 30
M  V30 25 1 31 32
M  V30 26 1 31 33
M  V30 27 1 31 34
M  V30 28 1 31 35
M  V30 29 1 36 37
M  V30 30 1 36 38
M  V30 31 1 36 39
M  V30 32 1 36 40
M  V30 33 1 41 42
M  V30 34 1 41 43
M  V30 35 1 41 44
M  V30 36 1 41 45
M  V30 37 1 46 47
M  V30 38 1 47 48
M  V30 39 1 49 50
M  V30 40 1 50 51
M  V30 41 1 52 53
M  V30 42 1 53 54
M  V30 43 1 55 56
M  V30 44 1 56 57
M  V30 45 1 58 59
M  V30 46 1 59 60
M  V30 47 1 61 62
M  V30 48 1 62 63
M  V30 49 1 64 65
M  V30 50 1 65 66
M  V30 51 1 67 68
M  V30 52 1 68 69
M  V30 53 1 70 71
M  V30 54 1 71 72
M  V30 55 1 73 74
M  V30 56 1 74 75
M  V30 57 1 76 77
M  V30 58 1 77 78
M  V30 59 1 79 80
M  V30 60 1 80 81
M  V30 61 1 82 83
M  V30 62 1 83 84
M  V30 63 1 85 86
M  V30 64 1 86 87
M  V30 65 1 88 89
M  V30 66 1 89 90
M  V30 67 1 91 92
M  V30 68 1 92 93
M  V30 69 1 94 95
M  V30 70 1 95 96
M  V30 71 1 97 98
M  V30 72 1 98 99
M  V30 73 1 2 46
M  V30 74 1 3 76
M  V30 75 1 4 70
M  V30 76 1 5 94
M  V30 77 1 7 82
M  V30 78 1 8 58
M  V30 79 1 9 67
M  V30 80 1 10 55
M  V30 81 1 12 91
M  V30 82 1 13 79
M  V30 83 1 14 64
M  V30 84 1 15 88
M  V30 85 1 17 66
M  V30 86 1 18 52
M  V30 87 1 19 49
M  V30 88 1 20 61
M  V30 89 1 22 84
M  V30 90 1 23 81
M  V30 91 1 24 51
M  V30 92 1 25 85
M  V30 93 1 27 54
M  V30 94 1 28 97
M  V30 95 1 29 72
M  V30 96 1 30 63
M  V30 97 1 32 48
M  V30 98 1 33 99
M  V30 99 1 34 90
M  V30 100 1 35 93
M  V30 101 1 37 87
M  V30 102 1 38 73
M  V30 103 1 39 69
M  V30 104 1 40 96
M  V30 105 1 42 60
M  V30 106 1 43 78
M  V30 107 1 44 75
M  V30 108 1 45 57
M  V30 END BOND
M  V30 END CTAB
M  END

$$$$
