
     RDKit          3D

  0  0  0  0  0  0  0  0  0  0999 V3000
M  V30 BEGIN CTAB
M  V30 COUNTS 99 108 0 0 0
M  V30 BEGIN ATOM
M  V30 1 Pd -3.6229 -0.7973 5.7951 0
M  V30 2 Pb -2.8626 -1.1308 6.3479 0
M  V30 3 Pb -4.3221 -0.5295 5.0957 0
M  V30 4 Pb -3.8551 -1.7504 5.6716 0
M  V30 5 Pb -3.4508 0.1558 6.0600 0
M  V30 6 Pd -3.2026 0.5740 -4.5447 0
M  V30 7 Pb -2.5756 0.7814 -5.2957 0
M  V30 8 Pb -3.2021 -0.3919 -4.8203 0
M  V30 9 Pb -3.8608 0.4574 -3.7890 0
M  V30 10 Pb -3.1698 1.5529 -4.3493 0
M  V30 11 Pd 4.5277 -3.1841 -0.6545 0
M  V30 12 Pb 5.2354 -2.6198 -0.2551 0
M  V30 13 Pb 3.8643 -3.8103 -1.0858 0
M  V30 14 Pb 4.2397 -3.4853 0.2828 0
M  V30 15 Pb 4.8676 -2.8235 -1.5240 0
M  V30 16 Pd 3.8266 -2.0150 5.2803 0
M  V30 17 Pb 4.6883 -1.6540 4.9531 0
M  V30 18 Pb 2.9636 -2.3251 5.6764 0
M  V30 19 Pb 3.7931 -2.6772 4.4979 0
M  V30 20 Pb 3.7911 -1.2973 5.9718 0
M  V30 21 Pd 0.6734 6.1272 -1.2275 0
M  V30 22 Pb -0.0630 6.1912 -0.5580 0
M  V30 23 Pb 1.4156 6.0317 -1.8939 0
M  V30 24 Pb 1.3119 6.1475 -0.4573 0
M  V30 25 Pb -0.0185 6.0127 -1.9363 0
M  V30 26 Pd 3.9146 1.6012 -6.4395 0
M  V30 27 Pb 4.0095 2.4965 -6.0018 0
M  V30 28 Pb 3.7740 0.6871 -6.8023 0
M  V30 29 Pb 3.0523 1.8703 -6.8608 0
M  V30 30 Pb 4.6819 1.2032 -5.9437 0
M  V30 31 Pd -5.6764 -1.9495 0.3414 0
M  V30 32 Pb -5.4526 -2.6012 -0.3729 0
M  V30 33 Pb -5.7804 -1.3420 1.1599 0
M  V30 34 Pb -5.7850 -2.7497 0.9128 0
M  V30 35 Pb -5.6044 -1.1728 -0.2932 0
M  V30 36 Pd -0.2729 3.9448 5.6050 0
M  V30 37 Pb 0.3651 3.4675 6.2077 0
M  V30 38 Pb -1.0650 3.5448 6.0678 0
M  V30 39 Pb 0.4930 4.3359 5.0899 0
M  V30 40 Pb -0.8785 4.4147 4.9684 0
M  V30 41 Pd -0.1086 -4.1713 -4.2013 0
M  V30 42 Pb 0.5921 -4.5761 -3.6025 0
M  V30 43 Pb -0.8373 -3.7567 -4.7533 0
M  V30 44 Pb -0.8618 -4.4983 -3.6435 0
M  V30 45 Pb 0.5900 -3.8796 -4.8476 0
M  V30 46 Ag -4.0812 -2.4345 5.5218 0
M  V30 47 Fe -5.0373 -3.4105 3.6155 0
M  V30 48 Ag -5.7929 -3.3022 1.3982 0
M  V30 49 Ag -2.1142 1.0271 -5.8342 0
M  V30 50 Fe 0.0904 1.5270 -6.5590 0
M  V30 51 Ag 2.3569 1.9531 -7.1215 0
M  V30 52 Ag -0.5842 6.2022 -0.0231 0
M  V30 53 Fe -1.0639 5.5449 2.2033 0
M  V30 54 Ag -1.2598 4.7704 4.4349 0
M  V30 55 Ag 1.9690 5.9425 -2.3954 0
M  V30 56 Fe 3.0336 4.5826 -4.0288 0
M  V30 57 Ag 4.0346 3.1582 -5.6471 0
M  V30 58 Ag 1.7007 6.1061 0.1839 0
M  V30 59 Fe 1.4918 5.4081 2.4468 0
M  V30 60 Ag 1.0204 4.6374 4.6458 0
M  V30 61 Ag 3.6386 -0.0217 -6.9795 0
M  V30 62 Fe 2.4009 -1.9070 -6.2584 0
M  V30 63 Ag 1.0817 -3.6575 -5.3622 0
M  V30 64 Ag 5.2120 -2.4600 -2.0851 0
M  V30 65 Fe 5.2478 -0.8527 -3.8340 0
M  V30 66 Ag 5.1591 0.7625 -5.5734 0
M  V30 67 Ag -2.2741 -1.4776 6.6537 0
M  V30 68 Fe 0.0301 -1.9954 6.4099 0
M  V30 69 Ag 2.3348 -2.4504 6.0654 0
M  V30 70 Ag 3.6627 -0.7294 6.4399 0
M  V30 71 Fe 2.3246 1.2175 6.6571 0
M  V30 72 Ag 0.8754 3.0954 6.6101 0
M  V30 73 Ag 5.7359 -2.2260 0.1155 0
M  V30 74 Fe 5.9547 -1.5615 2.3578 0
M  V30 75 Ag 5.2876 -1.4068 4.6044 0
M  V30 76 Ag -3.0906 2.2939 -4.2728 0
M  V30 77 Fe -1.8777 4.1228 -3.3697 0
M  V30 78 Ag -0.5855 5.8601 -2.3988 0
M  V30 79 Ag -5.1984 -3.1574 -0.7956 0
M  V30 80 Fe -3.3927 -3.9892 -2.0810 0
M  V30 81 Ag -1.5153 -4.6873 -3.3432 0
M  V30 82 Ba -3.3763 0.8487 6.3486 0
M  V30 83 Ga -2.4924 2.0333 6.3283 0
M  V30 84 Ba -1.6860 3.2710 6.3888 0
M  V30 85 Ba -4.8394 -0.3253 4.5565 0
M  V30 86 Ga -5.2996 -0.6653 3.1643 0
M  V30 87 Ba -5.8619 -0.8944 1.7871 0
M  V30 88 Ba 3.4099 -4.3435 -1.3767 0
M  V30 89 Ga 2.2498 -4.5470 -2.2799 0
M  V30 90 Ba 1.1030 -4.9047 -3.1517 0
M  V30 91 Ba 4.0396 -3.7480 0.9842 0
M  V30 92 Ga 3.9179 -3.3769 2.4372 0
M  V30 93 Ba 3.7352 -3.1891 3.9189 0
M  V30 94 Ba -3.1719 -1.0840 -5.1203 0
M  V30 95 Ga -2.2863 -2.2710 -5.0880 0
M  V30 96 Ba -1.4482 -3.4923 -5.1081 0
M  V30 97 Ba -4.3748 0.5098 -3.2332 0
M  V30 98 Ga -4.9284 -0.1215 -2.0103 0
M  V30 99 Ba -5.6075 -0.5940 -0.7786 0
M  V30 END ATOM
M  V30 BEGIN BOND
M  V30 1 1 1 2
M  V30 2 1 1 3
M  V30 3 1 1 4
M  V30 4 1 1 5
M  V30 5 1 6 7
M  V30 6 1 6 8
M  V30 7 1 6 9
M  V30 8 1 6 10
M  V30 9 1 11 12
M  V30 10 1 11 13
M  V30 11 1 11 14
M  V30 12 1 11 15
M  V30 13 1 16 17
M  V30 14 1 16 18
M  V30 15 1 16 19
M  V30 16 1 16 20
M  V30 17 1 21 22
M  V30 18 1 21 23
M  V30 19 1 21 24
M  V30 20 1 21 25
M  V30 21 1 26 27
M  V30 22 1 26 28
M  V30 23 1 26 29
M  V30 24 1 26 30
M  V30 25 1 31 32
M  V30 26 1 31 33
M  V30 27 1 31 34
M  V30 28 1 31 35
M  V30 29 1 36 37
M  V30 30 1 36 38
M  V30 31 1 36 39
M  V30 32 1 36 40
M  V30 33 1 41 42
M  V30 34 1 41 43
M  V30 35 1 41 44
M  V30 36 1 41 45
M  V30 37 1 46 47
M  V30 38 1 47 48
M  V30 39 1 49 50
M  V30 40 1 50 51
M  V30 41 1 52 53
M  V30 42 1 53 54
M  V30 43 1 55 56
M  V30 44 1 56 57
M  V30 45 1 58 59
M  V30 46 1 59 60
M  V30 47 1 61 62
M  V30 48 1 62 63
M  V30 49 1 64 65
M  V30 50 1 65 66
M  V30 51 1 67 68
M  V30 52 1 68 69
M  V30 53 1 70 71
M  V30 54 1 71 72
M  V30 55 1 73 74
M  V30 56 1 74 75
M  V30 57 1 76 77
M  V30 58 1 77 78
M  V30 59 1 79 80
M  V30 60 1 80 81
M  V30 61 1 82 83
M  V30 62 1 83 84
M  V30 63 1 85 86
M  V30 64 1 86 87
M  V30 65 1 88 89
M  V30 66 1 89 90
M  V30 67 1 91 92
M  V30 68 1 92 93
M  V30 69 1 94 95
M  V30 70 1 95 96
M  V30 71 1 97 98
M  V30 72 1 98 99
M  V30 73 1 2 67
M  V30 74 1 3 85
M  V30 75 1 4 46
M  V30 76 1 5 82
M  V30 77 1 7 49
M  V30 78 1 8 94
M  V30 79 1 9 97
M  V30 80 1 10 76
M  V30 81 1 12 73
M  V30 82 1 13 88
M  V30 83 1 14 91
M  V30 84 1 15 64
M  V30 85 1 17 75
M  V30 86 1 18 69
M  V30 87 1 19 93
M  V30 88 1 20 70
M  V30 89 1 22 52
M  V30 90 1 23 55
M  V30 91 1 24 58
M  V30 92 1 25 78
M  V30 93 1 27 57
M  V30 94 1 28 61
M  V30 95 1 29 51
M  V30 96 1 30 66
M  V30 97 1 32 79
M  V30 98 1 33 87
M  V30 99 1 34 48
M  V30 100 1 35 99
M  V30 101 1 37 72
M  V30 102 1 38 84
M  V30 103 1 39 60
M  V30 104 1 40 54
M  V30 105 1 42 90
M  V30 106 1 43 96
M  V30 107 1 44 81
M  V30 108 1 45 63
M  V30 END BOND
M  V30 END CTAB
M  END

$$$$
