
     RDKit          3D

  0  0  0  0  0  0  0  0  0  0999 V3000
M  V30 BEGIN CTAB
M  V30 COUNTS 99 108 0 0 0
M  V30 BEGIN ATOM
M  V30 1 Pd 3.7919 -0.9384 -3.3699 0
M  V30 2 Pb 4.2600 -0.8821 -2.4876 0
M  V30 3 Pb 4.0630 0.0148 -3.5239 0
M  V30 4 Pb 3.5247 -1.8912 -3.2025 0
M  V30 5 Pb 3.3719 -1.0022 -4.2772 0
M  V30 6 Pd -1.4436 6.0418 -1.2168 0
M  V30 7 Pb -1.1082 5.2836 -0.6543 0
M  V30 8 Pb -1.7847 6.8092 -1.7521 0
M  V30 9 Pb -2.1981 5.4849 -1.5560 0
M  V30 10 Pb -0.5592 6.5259 -1.1113 0
M  V30 11 Pd -2.1287 0.3777 6.2932 0
M  V30 12 Pb -1.3413 0.9703 6.1137 0
M  V30 13 Pb -2.7475 1.0155 5.8308 0
M  V30 14 Pb -2.8488 -0.3064 6.4077 0
M  V30 15 Pb -1.4876 -0.2567 6.7180 0
M  V30 16 Pd -4.0171 -5.8039 2.7647 0
M  V30 17 Pb -4.2101 -5.3685 3.6448 0
M  V30 18 Pb -3.3407 -6.4228 3.1643 0
M  V30 19 Pb -4.6323 -5.1290 2.3638 0
M  V30 20 Pb -3.7961 -6.1818 1.8649 0
M  V30 21 Pd -3.2210 1.2234 1.1484 0
M  V30 22 Pb -2.4185 1.8210 1.0893 0
M  V30 23 Pb -3.5305 1.6914 1.9776 0
M  V30 24 Pb -3.9931 0.5930 1.1970 0
M  V30 25 Pb -2.9107 0.7009 0.3549 0
M  V30 26 Pd 0.6524 -6.8108 0.8436 0
M  V30 27 Pb 0.2289 -7.1562 1.6835 0
M  V30 28 Pb 1.5234 -6.6845 1.3180 0
M  V30 29 Pb 1.0706 -6.4492 0.0068 0
M  V30 30 Pb -0.2306 -6.9190 0.3855 0
M  V30 31 Pd 4.3968 -1.5563 4.3592 0
M  V30 32 Pb 4.8524 -1.2699 3.5184 0
M  V30 33 Pb 4.6075 -2.5072 4.1420 0
M  V30 34 Pb 3.8776 -1.8459 5.1588 0
M  V30 35 Pb 4.0556 -0.6310 4.5349 0
M  V30 36 Pd -0.6944 0.7827 -5.9846 0
M  V30 37 Pb -0.9702 0.1397 -5.2759 0
M  V30 38 Pb -0.3548 1.4793 -6.6168 0
M  V30 39 Pb -1.4362 1.3665 -5.6498 0
M  V30 40 Pb 0.0713 0.1984 -6.2486 0
M  V30 41 Pd 2.6680 6.7536 -4.7369 0
M  V30 42 Pb 2.0871 7.5118 -5.0192 0
M  V30 43 Pb 3.2434 5.9771 -4.4728 0
M  V30 44 Pb 2.6015 6.3670 -5.6539 0
M  V30 45 Pb 2.5373 7.0314 -3.7690 0
M  V30 46 Ag 4.6480 -0.8031 -1.8500 0
M  V30 47 Fe 4.9022 -0.9435 0.5066 0
M  V30 48 Ag 5.1610 -1.0834 2.8627 0
M  V30 49 Ag -2.7079 0.2654 -0.2208 0
M  V30 50 Fe -1.9463 -0.0518 -2.4455 0
M  V30 51 Ag -1.1788 -0.2594 -4.6810 0
M  V30 52 Ag -5.0401 -4.5542 2.1156 0
M  V30 53 Fe -4.9209 -2.2373 1.6223 0
M  V30 54 Ag -4.5202 0.0626 1.2036 0
M  V30 55 Ag -0.9535 -0.7093 6.9772 0
M  V30 56 Fe 1.2397 -1.4711 6.5023 0
M  V30 57 Ag 3.4115 -2.0050 5.7190 0
M  V30 58 Ag -1.8954 7.3733 -2.2197 0
M  V30 59 Fe -0.4726 8.1685 -3.9159 0
M  V30 60 Ag 1.5459 8.0088 -5.1131 0
M  V30 61 Ag -0.6877 1.3094 5.9614 0
M  V30 62 Fe 1.5507 0.8253 5.3224 0
M  V30 63 Ag 3.6910 0.0095 4.6845 0
M  V30 64 Ag -3.3117 -0.8943 6.4603 0
M  V30 65 Fe -3.9170 -2.9515 5.4378 0
M  V30 66 Ag -4.3693 -4.9623 4.2560 0
M  V30 67 Ag -2.6522 5.0479 -1.9591 0
M  V30 68 Fe -2.4750 3.3840 -3.6448 0
M  V30 69 Ag -1.9768 1.7570 -5.3025 0
M  V30 70 Ag 3.3174 -2.6093 -3.1069 0
M  V30 71 Fe 2.3527 -4.3741 -1.8368 0
M  V30 72 Ag 1.3995 -6.1778 -0.6137 0
M  V30 73 Ag -0.0236 2.0135 -7.0260 0
M  V30 74 Fe 1.2274 4.0231 -6.8524 0
M  V30 75 Ag 2.4246 5.9889 -6.2740 0
M  V30 76 Ag 4.2981 0.7270 -3.5889 0
M  V30 77 Fe 3.9520 3.0504 -3.9568 0
M  V30 78 Ag 3.6795 5.3852 -4.3154 0
M  V30 79 Ag 2.1705 -6.5543 1.6734 0
M  V30 80 Fe 3.5095 -4.9681 2.8244 0
M  V30 81 Ag 4.6704 -3.2246 3.9404 0
M  V30 82 Ba -0.8424 4.7338 -0.2159 0
M  V30 83 Ga -1.3503 3.4912 0.4019 0
M  V30 84 Ba -1.7944 2.2390 1.0484 0
M  V30 85 Ba -2.7936 -6.8671 3.4214 0
M  V30 86 Ga -1.4470 -7.1592 2.8901 0
M  V30 87 Ba -0.1145 -7.4068 2.3038 0
M  V30 88 Ba 0.1283 6.8624 -1.1050 0
M  V30 89 Ga 1.2471 7.0353 -2.0844 0
M  V30 90 Ba 2.3811 7.2230 -3.0434 0
M  V30 91 Ba -3.5898 -6.4515 1.1954 0
M  V30 92 Ga -2.2665 -6.7358 0.6069 0
M  V30 93 Ba -0.9123 -6.9977 0.0814 0
M  V30 94 Ba 3.0787 -1.0851 -4.9646 0
M  V30 95 Ga 1.8688 -0.6512 -5.6894 0
M  V30 96 Ba 0.6638 -0.2239 -6.4261 0
M  V30 97 Ba -3.1913 1.5019 5.4681 0
M  V30 98 Ga -3.4854 1.7664 4.0449 0
M  V30 99 Ba -3.7641 2.0126 2.6153 0
M  V30 END ATOM
M  V30 BEGIN BOND
M  V30 1 1 1 2
M  V30 2 1 1 3
M  V30 3 1 1 4
M  V30 4 1 1 5
M  V30 5 1 6 7
M  V30 6 1 6 8
M  V30 7 1 6 9
M  V30 8 1 6 10
M  V30 9 1 11 12
M  V30 10 1 11 13
M  V30 11 1 11 14
M  V30 12 1 11 15
M  V30 13 1 16 17
M  V30 14 1 16 18
M  V30 15 1 16 19
M  V30 16 1 16 20
M  V30 17 1 21 22
M  V30 18 1 21 23
M  V30 19 1 21 24
M  V30 20 1 21 25
M  V30 21 1 26 27
M  V30 22 1 26 28
M  V30 23 1 26 29
M  V30 24 1 26 30
M  V30 25 1 31 32
M  V30 26 1 31 33
M  V30 27 1 31 34
M  V30 28 1 31 35
M  V30 29 1 36 37
M  V30 30 1 36 38
M  V30 31 1 36 39
M  V30 32 1 36 40
M  V30 33 1 41 42
M  V30 34 1 41 43
M  V30 35 1 41 44
M  V30 36 1 41 45
M  V30 37 1 46 47
M  V30 38 1 47 48
M  V30 39 1 49 50
M  V30 40 1 50 51
M  V30 41 1 52 53
M  V30 42 1 53 54
M  V30 43 1 55 56
M  V30 44 1 56 57
M  V30 45 1 58 59
M  V30 46 1 59 60
M  V30 47 1 61 62
M  V30 48 1 62 63
M  V30 49 1 64 65
M  V30 50 1 65 66
M  V30 51 1 67 68
M  V30 52 1 68 69
M  V30 53 1 70 71
M  V30 54 1 71 72
M  V30 55 1 73 74
M  V30 56 1 74 75
M  V30 57 1 76 77
M  V30 58 1 77 78
M  V30 59 1 79 80
M  V30 60 1 80 81
M  V30 61 1 82 83
M  V30 62 1 83 84
M  V30 63 1 85 86
M  V30 64 1 86 87
M  V30 65 1 88 89
M  V30 66 1 89 90
M  V30 67 1 91 92
M  V30 68 1 92 93
M  V30 69 1 94 95
M  V30 70 1 95 96
M  V30 71 1 97 98
M  V30 72 1 98 99
M  V30 73 1 2 46
M  V30 74 1 3 76
M  V30 75 1 4 70
M  V30 76 1 5 94
M  V30 77 1 7 82
M  V30 78 1 8 58
M  V30 79 1 9 67
M  V30 80 1 10 88
M  V30 81 1 12 61
M  V30 82 1 13 97
M  V30 83 1 14 64
M  V30 84 1 15 55
M  V30 85 1 17 66
M  V30 86 1 18 85
M  V30 87 1 19 52
M  V30 88 1 20 91
M  V30 89 1 22 84
M  V30 90 1 23 99
M  V30 91 1 24 54
M  V30 92 1 25 49
M  V30 93 1 27 87
M  V30 94 1 28 79
M  V30 95 1 29 72
M  V30 96 1 30 93
M  V30 97 1 32 48
M  V30 98 1 33 81
M  V30 99 1 34 57
M  V30 100 1 35 63
M  V30 101 1 37 51
M  V30 102 1 38 73
M  V30 103 1 39 69
M  V30 104 1 40 96
M  V30 105 1 42 60
M  V30 106 1 43 78
M  V30 107 1 44 75
M  V30 108 1 45 90
M  V30 END BOND
M  V30 END CTAB
M  END

$$$$
