
     RDKit          3D

  0  0  0  0  0  0  0  0  0  0999 V3000
M  V30 BEGIN CTAB
M  V30 COUNTS 99 108 0 0 0
M  V30 BEGIN ATOM
M  V30 1 Pd -3.6611 0.9555 2.5463 0
M  V30 2 Pb -4.5939 0.8105 2.2157 0
M  V30 3 Pb -3.3935 1.0822 1.5903 0
M  V30 4 Pb -3.9291 0.7398 3.4841 0
M  V30 5 Pb -2.7131 1.0273 2.8622 0
M  V30 6 Pd 4.4051 5.3206 -3.9122 0
M  V30 7 Pb 5.0350 4.5441 -3.8639 0
M  V30 8 Pb 3.7413 4.8143 -4.4660 0
M  V30 9 Pb 4.9331 5.7986 -3.2153 0
M  V30 10 Pb 3.7405 6.0621 -3.8876 0
M  V30 11 Pd -0.3488 -4.2383 -3.4752 0
M  V30 12 Pb -0.8745 -3.7506 -4.1629 0
M  V30 13 Pb 0.4631 -3.7086 -3.7136 0
M  V30 14 Pb 0.2237 -4.7271 -2.8137 0
M  V30 15 Pb -1.1943 -4.7503 -3.2205 0
M  V30 16 Pd 1.6714 -3.7470 1.7422 0
M  V30 17 Pb 1.8479 -4.2653 0.9037 0
M  V30 18 Pb 1.4655 -3.2691 2.6010 0
M  V30 19 Pb 2.4744 -3.1583 1.6193 0
M  V30 20 Pb 0.9290 -4.3849 1.9285 0
M  V30 21 Pd 5.1227 0.5316 -0.8626 0
M  V30 22 Pb 5.4910 1.1583 -1.5574 0
M  V30 23 Pb 4.7207 -0.0058 -1.6030 0
M  V30 24 Pb 4.8528 -0.1497 -0.1771 0
M  V30 25 Pb 5.5222 1.0557 -0.1063 0
M  V30 26 Pd -2.6934 -3.4607 4.7166 0
M  V30 27 Pb -1.7901 -3.0669 4.8961 0
M  V30 28 Pb -3.5665 -3.8483 4.4326 0
M  V30 29 Pb -3.1452 -2.6797 5.1496 0
M  V30 30 Pb -2.2626 -4.2218 4.2407 0
M  V30 31 Pd -6.0171 -3.9169 -1.8048 0
M  V30 32 Pb -6.6001 -3.1844 -1.4589 0
M  V30 33 Pb -6.0707 -4.3174 -0.8915 0
M  V30 34 Pb -5.2828 -4.5636 -2.0864 0
M  V30 35 Pb -5.9701 -3.4858 -2.6986 0
M  V30 36 Pd 3.3514 4.1538 2.8057 0
M  V30 37 Pb 4.1884 3.6112 2.7158 0
M  V30 38 Pb 2.4911 4.6654 2.8189 0
M  V30 39 Pb 3.8556 4.8985 2.3718 0
M  V30 40 Pb 2.8302 3.3863 3.1754 0
M  V30 41 Pd -1.9850 4.5142 -1.7697 0
M  V30 42 Pb -1.7010 4.1791 -2.6702 0
M  V30 43 Pb -2.2858 3.5964 -1.5121 0
M  V30 44 Pb -2.0450 4.8414 -0.8286 0
M  V30 45 Pb -1.6160 5.3991 -2.0395 0
M  V30 46 Ag -5.2540 0.6420 1.9023 0
M  V30 47 Fe -6.2750 -0.8935 0.4076 0
M  V30 48 Ag -6.9151 -2.6028 -1.1095 0
M  V30 49 Ag 3.1739 6.5400 -3.8125 0
M  V30 50 Fe 0.9213 6.5234 -3.0839 0
M  V30 51 Ag -1.2417 5.9974 -2.2777 0
M  V30 52 Ag 3.1353 4.4841 -4.7662 0
M  V30 53 Fe 0.8489 4.1182 -4.2216 0
M  V30 54 Ag -1.3376 3.9730 -3.2962 0
M  V30 55 Ag -1.3658 -3.4165 -4.6044 0
M  V30 56 Fe -3.6844 -3.0572 -4.4089 0
M  V30 57 Ag -5.7827 -3.1905 -3.3501 0
M  V30 58 Ag 5.2002 6.1156 -2.5949 0
M  V30 59 Fe 4.8749 5.9148 -0.2549 0
M  V30 60 Ag 4.2653 5.3820 1.9740 0
M  V30 61 Ag -2.0083 1.0331 3.1246 0
M  V30 62 Fe 0.1886 1.9242 3.2802 0
M  V30 63 Ag 2.3766 2.8402 3.4142 0
M  V30 64 Ag 1.8019 4.9629 2.7902 0
M  V30 65 Fe -0.1551 5.1244 1.4541 0
M  V30 66 Ag -1.9202 5.0920 -0.1343 0
M  V30 67 Ag -4.1646 -4.1617 4.1134 0
M  V30 68 Fe -5.2378 -4.4244 2.0142 0
M  V30 69 Ag -6.1298 -4.5453 -0.1807 0
M  V30 70 Ag 1.0790 -3.3091 -3.8584 0
M  V30 71 Fe 2.7605 -1.8513 -3.0331 0
M  V30 72 Ag 4.4248 -0.3949 -2.1710 0
M  V30 73 Ba 5.5151 3.9706 -3.7933 0
M  V30 74 Ga 5.6253 2.7740 -2.9298 0
M  V30 75 Ba 5.8169 1.5570 -2.1105 0
M  V30 76 Ba 5.8109 1.3963 0.5005 0
M  V30 77 Ga 5.3164 2.3192 1.5447 0
M  V30 78 Ba 4.8321 3.2425 2.5934 0
M  V30 79 Ba 3.1061 -2.7486 1.6270 0
M  V30 80 Ga 3.8524 -1.6862 0.9194 0
M  V30 81 Ba 4.7576 -0.6501 0.3777 0
M  V30 82 Ba 1.3048 -2.9295 3.2550 0
M  V30 83 Ga 0.1105 -2.8456 4.1242 0
M  V30 84 Ba -1.0996 -2.7793 4.9727 0
M  V30 85 Ba -1.8266 -5.1609 -3.0620 0
M  V30 86 Ga -3.2657 -5.0282 -2.6649 0
M  V30 87 Ba -4.7123 -5.0435 -2.2728 0
M  V30 88 Ba 0.4019 -4.8848 2.1005 0
M  V30 89 Ga -0.7839 -4.8528 2.9676 0
M  V30 90 Ba -1.9608 -4.7767 3.8441 0
M  V30 91 Ba 0.7241 -5.0685 -2.3671 0
M  V30 92 Ga 1.3107 -4.8682 -1.0253 0
M  V30 93 Ba 1.9315 -4.7156 0.3075 0
M  V30 94 Ba -4.0932 0.5187 4.1807 0
M  V30 95 Ga -3.8144 -0.7625 4.8558 0
M  V30 96 Ba -3.4884 -2.0776 5.4380 0
M  V30 97 Ba -3.2435 1.1032 0.8548 0
M  V30 98 Ga -2.8541 2.0462 -0.2109 0
M  V30 99 Ba -2.4699 2.8853 -1.3621 0
M  V30 END ATOM
M  V30 BEGIN BOND
M  V30 1 1 1 2
M  V30 2 1 1 3
M  V30 3 1 1 4
M  V30 4 1 1 5
M  V30 5 1 6 7
M  V30 6 1 6 8
M  V30 7 1 6 9
M  V30 8 1 6 10
M  V30 9 1 11 12
M  V30 10 1 11 13
M  V30 11 1 11 14
M  V30 12 1 11 15
M  V30 13 1 16 17
M  V30 14 1 16 18
M  V30 15 1 16 19
M  V30 16 1 16 20
M  V30 17 1 21 22
M  V30 18 1 21 23
M  V30 19 1 21 24
M  V30 20 1 21 25
M  V30 21 1 26 27
M  V30 22 1 26 28
M  V30 23 1 26 29
M  V30 24 1 26 30
M  V30 25 1 31 32
M  V30 26 1 31 33
M  V30 27 1 31 34
M  V30 28 1 31 35
M  V30 29 1 36 37
M  V30 30 1 36 38
M  V30 31 1 36 39
M  V30 32 1 36 40
M  V30 33 1 41 42
M  V30 34 1 41 43
M  V30 35 1 41 44
M  V30 36 1 41 45
M  V30 37 1 46 47
M  V30 38 1 47 48
M  V30 39 1 49 50
M  V30 40 1 50 51
M  V30 41 1 52 53
M  V30 42 1 53 54
M  V30 43 1 55 56
M  V30 44 1 56 57
M  V30 45 1 58 59
M  V30 46 1 59 60
M  V30 47 1 61 62
M  V30 48 1 62 63
M  V30 49 1 64 65
M  V30 50 1 65 66
M  V30 51 1 67 68
M  V30 52 1 68 69
M  V30 53 1 70 71
M  V30 54 1 71 72
M  V30 55 1 73 74
M  V30 56 1 74 75
M  V30 57 1 76 77
M  V30 58 1 77 78
M  V30 59 1 79 80
M  V30 60 1 80 81
M  V30 61 1 82 83
M  V30 62 1 83 84
M  V30 63 1 85 86
M  V30 64 1 86 87
M  V30 65 1 88 89
M  V30 66 1 89 90
M  V30 67 1 91 92
M  V30 68 1 92 93
M  V30 69 1 94 95
M  V30 70 1 95 96
M  V30 71 1 97 98
M  V30 72 1 98 99
M  V30 73 1 2 46
M  V30 74 1 3 97
M  V30 75 1 4 94
M  V30 76 1 5 61
M  V30 77 1 7 73
M  V30 78 1 8 52
M  V30 79 1 9 58
M  V30 80 1 10 49
M  V30 81 1 12 55
M  V30 82 1 13 70
M  V30 83 1 14 91
M  V30 84 1 15 85
M  V30 85 1 17 93
M  V30 86 1 18 82
M  V30 87 1 19 79
M  V30 88 1 20 88
M  V30 89 1 22 75
M  V30 90 1 23 72
M  V30 91 1 24 81
M  V30 92 1 25 76
M  V30 93 1 27 84
M  V30 94 1 28 67
M  V30 95 1 29 96
M  V30 96 1 30 90
M  V30 97 1 32 48
M  V30 98 1 33 69
M  V30 99 1 34 87
M  V30 100 1 35 57
M  V30 101 1 37 78
M  V30 102 1 38 64
M  V30 103 1 39 60
M  V30 104 1 40 63
M  V30 105 1 42 54
M  V30 106 1 43 99
M  V30 107 1 44 66
M  V30 108 1 45 51
M  V30 END BOND
M  V30 END CTAB
M  END

$$$$
