
     RDKit          3D

  0  0  0  0  0  0  0  0  0  0999 V3000
M  V30 BEGIN CTAB
M  V30 COUNTS 99 108 0 0 0
M  V30 BEGIN ATOM
M  V30 1 Pd -3.7130 2.1169 -2.4215 0
M  V30 2 Pb -4.1525 2.1462 -1.5194 0
M  V30 3 Pb -3.5067 3.0874 -2.2744 0
M  V30 4 Pb -3.9243 1.1464 -2.5779 0
M  V30 5 Pb -3.3393 2.1384 -3.3528 0
M  V30 6 Pd 4.1999 4.8939 0.6182 0
M  V30 7 Pb 3.8260 4.0746 1.0585 0
M  V30 8 Pb 4.5330 5.7262 0.1772 0
M  V30 9 Pb 4.5865 4.3557 -0.1278 0
M  V30 10 Pb 3.6966 5.4732 1.2609 0
M  V30 11 Pd 1.5505 -3.4866 4.6271 0
M  V30 12 Pb 1.2740 -2.5216 4.5984 0
M  V30 13 Pb 2.5134 -3.2205 4.5494 0
M  V30 14 Pb 1.7598 -4.4670 4.6071 0
M  V30 15 Pb 0.5868 -3.7090 4.7352 0
M  V30 16 Pd 0.4856 -7.3263 0.9876 0
M  V30 17 Pb 0.8191 -7.3267 1.9350 0
M  V30 18 Pb 0.1770 -7.2967 0.0372 0
M  V30 19 Pb 1.3910 -7.0242 0.7002 0
M  V30 20 Pb -0.4443 -7.5882 1.2552 0
M  V30 21 Pd 3.9711 -0.9781 0.8792 0
M  V30 22 Pb 3.6543 -0.0857 1.2099 0
M  V30 23 Pb 4.3753 -1.1749 1.7708 0
M  V30 24 Pb 4.2295 -1.8957 0.5898 0
M  V30 25 Pb 3.4892 -0.8840 0.0087 0
M  V30 26 Pd -3.9928 -5.6308 -1.0425 0
M  V30 27 Pb -3.1918 -5.9872 -1.5208 0
M  V30 28 Pb -4.7864 -5.2571 -0.5684 0
M  V30 29 Pb -4.1014 -4.8829 -1.7014 0
M  V30 30 Pb -3.8476 -6.3245 -0.3324 0
M  V30 31 Pd -4.5625 0.0018 2.9135 0
M  V30 32 Pb -4.7778 0.7933 2.3430 0
M  V30 33 Pb -5.3671 -0.4808 2.5820 0
M  V30 34 Pb -4.3350 -0.8183 3.4297 0
M  V30 35 Pb -3.6813 0.3763 3.2090 0
M  V30 36 Pd 1.0452 2.4113 -5.3485 0
M  V30 37 Pb 1.0773 1.4958 -4.9601 0
M  V30 38 Pb 1.0222 3.3689 -5.6280 0
M  V30 39 Pb 1.9935 2.5073 -5.0484 0
M  V30 40 Pb 0.0747 2.3167 -5.5685 0
M  V30 41 Pd 1.1259 8.0677 -1.2104 0
M  V30 42 Pb 2.1015 8.2753 -1.2433 0
M  V30 43 Pb 0.1683 7.7768 -1.1999 0
M  V30 44 Pb 1.0869 8.0468 -2.2072 0
M  V30 45 Pb 1.2088 7.9840 -0.2152 0
M  V30 46 Ag 3.1067 -0.9160 -0.6359 0
M  V30 47 Fe 2.1279 -0.0485 -2.6158 0
M  V30 48 Ag 1.1636 0.8572 -4.5856 0
M  V30 49 Ag 2.0513 -6.7409 0.4979 0
M  V30 50 Fe 3.3218 -4.7431 0.3889 0
M  V30 51 Ag 4.3493 -2.6076 0.4022 0
M  V30 52 Ag -0.1488 -3.7921 4.8145 0
M  V30 53 Fe -2.2160 -2.7293 4.3612 0
M  V30 54 Ag -4.1145 -1.4415 3.7736 0
M  V30 55 Ag 0.9946 -1.8223 4.5513 0
M  V30 56 Fe -0.9318 -0.5299 4.0202 0
M  V30 57 Ag -2.9808 0.5308 3.4374 0
M  V30 58 Ag 4.7844 4.0059 -0.7584 0
M  V30 59 Fe 3.8684 3.2266 -2.8041 0
M  V30 60 Ag 2.6752 2.5498 -4.7407 0
M  V30 61 Ag -4.0593 0.4293 -2.7739 0
M  V30 62 Fe -4.1208 -1.9251 -2.4317 0
M  V30 63 Ag -4.2074 -4.2867 -2.1490 0
M  V30 64 Ag 1.0079 4.1088 -5.7325 0
M  V30 65 Fe 1.0261 6.1356 -4.5015 0
M  V30 66 Ag 1.0602 7.9232 -2.9438 0
M  V30 67 Ag -3.3863 3.8132 -2.1129 0
M  V30 68 Fe -1.9636 5.6681 -1.6787 0
M  V30 69 Ag -0.5359 7.5198 -1.2480 0
M  V30 70 Ag -5.3496 -4.8938 -0.2387 0
M  V30 71 Fe -5.8365 -2.9620 1.0431 0
M  V30 72 Ag -5.8667 -0.9631 2.3136 0
M  V30 73 Ba 3.5045 3.4955 1.4152 0
M  V30 74 Ga 3.4932 2.0173 1.4100 0
M  V30 75 Ba 3.3832 0.5470 1.5149 0
M  V30 76 Ba -4.5033 2.2882 -0.8670 0
M  V30 77 Ga -4.6978 1.7794 0.5062 0
M  V30 78 Ba -4.9648 1.3680 1.9001 0
M  V30 79 Ba -0.0631 -7.2565 -0.6719 0
M  V30 80 Ga -1.3106 -6.7704 -1.2879 0
M  V30 81 Ba -2.5797 -6.2705 -1.8456 0
M  V30 82 Ba 3.2641 5.9415 1.6588 0
M  V30 83 Ga 2.2828 6.9280 1.1600 0
M  V30 84 Ba 1.3410 7.8683 0.5164 0
M  V30 85 Ba 4.7224 6.3719 -0.1514 0
M  V30 86 Ga 3.8503 7.4127 -0.7200 0
M  V30 87 Ba 2.8453 8.3525 -1.2430 0
M  V30 88 Ba -1.1606 -7.7642 1.4056 0
M  V30 89 Ga -2.4436 -7.3113 0.8244 0
M  V30 90 Ba -3.6990 -6.8260 0.2099 0
M  V30 91 Ba 1.8489 -5.2145 4.5836 0
M  V30 92 Ga 1.4873 -6.2649 3.6048 0
M  V30 93 Ba 1.1243 -7.3140 2.6251 0
M  V30 94 Ba -3.1180 2.1370 -4.0735 0
M  V30 95 Ga -1.8742 2.1990 -4.8684 0
M  V30 96 Ba -0.6597 2.2583 -5.7079 0
M  V30 97 Ba 3.2208 -2.9689 4.5029 0
M  V30 98 Ga 3.9583 -2.1838 3.4938 0
M  V30 99 Ba 4.6294 -1.4006 2.4381 0
M  V30 END ATOM
M  V30 BEGIN BOND
M  V30 1 1 1 2
M  V30 2 1 1 3
M  V30 3 1 1 4
M  V30 4 1 1 5
M  V30 5 1 6 7
M  V30 6 1 6 8
M  V30 7 1 6 9
M  V30 8 1 6 10
M  V30 9 1 11 12
M  V30 10 1 11 13
M  V30 11 1 11 14
M  V30 12 1 11 15
M  V30 13 1 16 17
M  V30 14 1 16 18
M  V30 15 1 16 19
M  V30 16 1 16 20
M  V30 17 1 21 22
M  V30 18 1 21 23
M  V30 19 1 21 24
M  V30 20 1 21 25
M  V30 21 1 26 27
M  V30 22 1 26 28
M  V30 23 1 26 29
M  V30 24 1 26 30
M  V30 25 1 31 32
M  V30 26 1 31 33
M  V30 27 1 31 34
M  V30 28 1 31 35
M  V30 29 1 36 37
M  V30 30 1 36 38
M  V30 31 1 36 39
M  V30 32 1 36 40
M  V30 33 1 41 42
M  V30 34 1 41 43
M  V30 35 1 41 44
M  V30 36 1 41 45
M  V30 37 1 46 47
M  V30 38 1 47 48
M  V30 39 1 49 50
M  V30 40 1 50 51
M  V30 41 1 52 53
M  V30 42 1 53 54
M  V30 43 1 55 56
M  V30 44 1 56 57
M  V30 45 1 58 59
M  V30 46 1 59 60
M  V30 47 1 61 62
M  V30 48 1 62 63
M  V30 49 1 64 65
M  V30 50 1 65 66
M  V30 51 1 67 68
M  V30 52 1 68 69
M  V30 53 1 70 71
M  V30 54 1 71 72
M  V30 55 1 73 74
M  V30 56 1 74 75
M  V30 57 1 76 77
M  V30 58 1 77 78
M  V30 59 1 79 80
M  V30 60 1 80 81
M  V30 61 1 82 83
M  V30 62 1 83 84
M  V30 63 1 85 86
M  V30 64 1 86 87
M  V30 65 1 88 89
M  V30 66 1 89 90
M  V30 67 1 91 92
M  V30 68 1 92 93
M  V30 69 1 94 95
M  V30 70 1 95 96
M  V30 71 1 97 98
M  V30 72 1 98 99
M  V30 73 1 2 76
M  V30 74 1 3 67
M  V30 75 1 4 61
M  V30 76 1 5 94
M  V30 77 1 7 73
M  V30 78 1 8 85
M  V30 79 1 9 58
M  V30 80 1 10 82
M  V30 81 1 12 55
M  V30 82 1 13 97
M  V30 83 1 14 91
M  V30 84 1 15 52
M  V30 85 1 17 93
M  V30 86 1 18 79
M  V30 87 1 19 49
M  V30 88 1 20 88
M  V30 89 1 22 75
M  V30 90 1 23 99
M  V30 91 1 24 51
M  V30 92 1 25 46
M  V30 93 1 27 81
M  V30 94 1 28 70
M  V30 95 1 29 63
M  V30 96 1 30 90
M  V30 97 1 32 78
M  V30 98 1 33 72
M  V30 99 1 34 54
M  V30 100 1 35 57
M  V30 101 1 37 48
M  V30 102 1 38 64
M  V30 103 1 39 60
M  V30 104 1 40 96
M  V30 105 1 42 87
M  V30 106 1 43 69
M  V30 107 1 44 66
M  V30 108 1 45 84
M  V30 END BOND
M  V30 END CTAB
M  END

$$$$
