
     RDKit          3D

  0  0  0  0  0  0  0  0  0  0999 V3000
M  V30 BEGIN CTAB
M  V30 COUNTS 99 108 0 0 0
M  V30 BEGIN ATOM
M  V30 1 Pd 1.5008 1.6857 5.6861 0
M  V30 2 Pb 0.6259 2.0858 5.9715 0
M  V30 3 Pb 1.8109 2.6018 5.4645 0
M  V30 4 Pb 2.3679 1.3126 5.9811 0
M  V30 5 Pb 2.1611 1.4499 4.9327 0
M  V30 6 Pd -1.0769 4.4202 -4.5607 0
M  V30 7 Pb -0.3889 5.0539 -4.2376 0
M  V30 8 Pb -1.5105 4.4126 -3.6340 0
M  V30 9 Pb -1.8381 3.9218 -4.9781 0
M  V30 10 Pb -0.5252 4.2225 -5.3661 0
M  V30 11 Pd -2.9970 3.1445 3.3366 0
M  V30 12 Pb -3.7151 2.5233 3.6317 0
M  V30 13 Pb -2.7364 3.3532 4.2763 0
M  V30 14 Pb -3.4924 3.3100 2.4827 0
M  V30 15 Pb -2.9014 2.4713 2.6025 0
M  V30 16 Pd -0.1307 4.0243 1.3787 0
M  V30 17 Pb -0.3458 3.1102 1.7573 0
M  V30 18 Pb 0.4916 4.2014 2.1428 0
M  V30 19 Pb -0.7659 3.9481 0.5762 0
M  V30 20 Pb 0.1884 4.8922 1.0254 0
M  V30 21 Pd 1.3695 -7.0445 -0.5747 0
M  V30 22 Pb 1.0953 -6.7474 0.3533 0
M  V30 23 Pb 1.6265 -7.1541 -1.5302 0
M  V30 24 Pb 2.3044 -6.7403 -0.4058 0
M  V30 25 Pb 0.4429 -7.3732 -0.7263 0
M  V30 26 Pd -4.0897 0.3659 -3.5694 0
M  V30 27 Pb -4.4227 1.1081 -2.9883 0
M  V30 28 Pb -4.2582 0.9117 -4.3799 0
M  V30 29 Pb -3.7985 -0.0739 -2.7262 0
M  V30 30 Pb -3.7034 -0.3459 -4.1563 0
M  V30 31 Pd 2.4534 -1.8243 -5.6778 0
M  V30 32 Pb 3.2259 -1.5214 -5.1155 0
M  V30 33 Pb 2.3275 -0.8909 -6.0199 0
M  V30 34 Pb 2.5739 -2.7820 -5.4144 0
M  V30 35 Pb 1.5713 -2.0759 -6.0691 0
M  V30 36 Pd 5.2274 -1.2299 1.6080 0
M  V30 37 Pb 4.7943 -0.3818 1.9765 0
M  V30 38 Pb 5.1120 -0.9753 0.6420 0
M  V30 39 Pb 5.5335 -2.1232 1.2951 0
M  V30 40 Pb 5.4713 -1.4609 2.5387 0
M  V30 41 Pd -2.3864 -3.6111 2.5370 0
M  V30 42 Pb -3.2174 -3.0956 2.7232 0
M  V30 43 Pb -1.5454 -4.1766 2.4527 0
M  V30 44 Pb -2.9093 -4.3911 2.2087 0
M  V30 45 Pb -1.8733 -2.7781 2.7846 0
M  V30 46 Ag -3.8649 3.3983 1.8368 0
M  V30 47 Fe -4.2918 2.5813 -0.3522 0
M  V30 48 Ag -4.6204 1.6540 -2.5140 0
M  V30 49 Ag 2.9806 0.9460 6.1660 0
M  V30 50 Fe 4.5554 -0.4111 5.0677 0
M  V30 51 Ag 5.6038 -1.4899 3.2618 0
M  V30 52 Ag -0.0618 3.9315 -5.8740 0
M  V30 53 Fe 1.1275 1.9036 -6.2073 0
M  V30 54 Ag 2.2103 -0.2075 -6.3113 0
M  V30 55 Ag -0.2811 -7.5334 -0.7070 0
M  V30 56 Fe -2.0816 -6.5440 0.4515 0
M  V30 57 Ag -3.1658 -4.9915 1.8574 0
M  V30 58 Ag 3.7288 -1.2436 -4.6283 0
M  V30 59 Fe 4.4238 -1.0506 -2.3596 0
M  V30 60 Ag 5.1402 -0.8317 -0.0999 0
M  V30 61 Ag -4.1952 1.9662 3.7398 0
M  V30 62 Fe -4.2273 -0.3773 3.4128 0
M  V30 63 Ag -3.7763 -2.6510 2.9352 0
M  V30 64 Ag 0.0404 5.5493 -3.9013 0
M  V30 65 Fe 0.5478 5.9448 -1.6424 0
M  V30 66 Ag 0.4713 5.4622 0.6547 0
M  V30 67 Ag -0.4000 2.4339 2.1057 0
M  V30 68 Fe -1.0099 0.1528 2.4567 0
M  V30 69 Ag -1.5367 -2.1205 2.9615 0
M  V30 70 Ag -2.8589 1.8848 2.1344 0
M  V30 71 Fe -3.1859 0.7629 0.0681 0
M  V30 72 Ag -3.5479 -0.2513 -2.0471 0
M  V30 73 Ag 1.8597 -7.0815 -2.2351 0
M  V30 74 Fe 2.2669 -5.3693 -3.8273 0
M  V30 75 Ag 2.6145 -3.5181 -5.2719 0
M  V30 76 Ag 3.0045 -6.5046 -0.2923 0
M  V30 77 Fe 4.4370 -4.7342 0.3640 0
M  V30 78 Ag 5.6485 -2.8204 1.0606 0
M  V30 79 Ag -3.3783 -0.8235 -4.6349 0
M  V30 80 Fe -1.3277 -1.6164 -5.5301 0
M  V30 81 Ag 0.8569 -2.2247 -6.2307 0
M  V30 82 Ba 2.6497 1.4493 4.3268 0
M  V30 83 Ga 3.5360 0.7329 3.3469 0
M  V30 84 Ba 4.4688 0.2535 2.2690 0
M  V30 85 Ba 0.0041 2.4391 6.2099 0
M  V30 86 Ga -1.2491 2.9397 5.6107 0
M  V30 87 Ba -2.4930 3.4241 4.9798 0
M  V30 88 Ba -2.4172 3.6186 -5.3498 0
M  V30 89 Ga -3.3668 2.5072 -5.1859 0
M  V30 90 Ba -4.2792 1.3769 -4.9569 0
M  V30 91 Ba 0.9208 -6.4727 1.0431 0
M  V30 92 Ga -0.0494 -5.5423 1.6927 0
M  V30 93 Ba -0.9385 -4.6435 2.4863 0
M  V30 94 Ba -1.8269 4.3216 -2.9335 0
M  V30 95 Ga -1.4699 4.1549 -1.4808 0
M  V30 96 Ba -1.2875 3.9725 0.0020 0
M  V30 97 Ba 1.9863 3.2722 5.1987 0
M  V30 98 Ga 1.4942 3.8731 3.9494 0
M  V30 99 Ba 0.9642 4.4137 2.6878 0
M  V30 END ATOM
M  V30 BEGIN BOND
M  V30 1 1 1 2
M  V30 2 1 1 3
M  V30 3 1 1 4
M  V30 4 1 1 5
M  V30 5 1 6 7
M  V30 6 1 6 8
M  V30 7 1 6 9
M  V30 8 1 6 10
M  V30 9 1 11 12
M  V30 10 1 11 13
M  V30 11 1 11 14
M  V30 12 1 11 15
M  V30 13 1 16 17
M  V30 14 1 16 18
M  V30 15 1 16 19
M  V30 16 1 16 20
M  V30 17 1 21 22
M  V30 18 1 21 23
M  V30 19 1 21 24
M  V30 20 1 21 25
M  V30 21 1 26 27
M  V30 22 1 26 28
M  V30 23 1 26 29
M  V30 24 1 26 30
M  V30 25 1 31 32
M  V30 26 1 31 33
M  V30 27 1 31 34
M  V30 28 1 31 35
M  V30 29 1 36 37
M  V30 30 1 36 38
M  V30 31 1 36 39
M  V30 32 1 36 40
M  V30 33 1 41 42
M  V30 34 1 41 43
M  V30 35 1 41 44
M  V30 36 1 41 45
M  V30 37 1 46 47
M  V30 38 1 47 48
M  V30 39 1 49 50
M  V30 40 1 50 51
M  V30 41 1 52 53
M  V30 42 1 53 54
M  V30 43 1 55 56
M  V30 44 1 56 57
M  V30 45 1 58 59
M  V30 46 1 59 60
M  V30 47 1 61 62
M  V30 48 1 62 63
M  V30 49 1 64 65
M  V30 50 1 65 66
M  V30 51 1 67 68
M  V30 52 1 68 69
M  V30 53 1 70 71
M  V30 54 1 71 72
M  V30 55 1 73 74
M  V30 56 1 74 75
M  V30 57 1 76 77
M  V30 58 1 77 78
M  V30 59 1 79 80
M  V30 60 1 80 81
M  V30 61 1 82 83
M  V30 62 1 83 84
M  V30 63 1 85 86
M  V30 64 1 86 87
M  V30 65 1 88 89
M  V30 66 1 89 90
M  V30 67 1 91 92
M  V30 68 1 92 93
M  V30 69 1 94 95
M  V30 70 1 95 96
M  V30 71 1 97 98
M  V30 72 1 98 99
M  V30 73 1 2 85
M  V30 74 1 3 97
M  V30 75 1 4 49
M  V30 76 1 5 82
M  V30 77 1 7 64
M  V30 78 1 8 94
M  V30 79 1 9 88
M  V30 80 1 10 52
M  V30 81 1 12 61
M  V30 82 1 13 87
M  V30 83 1 14 46
M  V30 84 1 15 70
M  V30 85 1 17 67
M  V30 86 1 18 99
M  V30 87 1 19 96
M  V30 88 1 20 66
M  V30 89 1 22 91
M  V30 90 1 23 73
M  V30 91 1 24 76
M  V30 92 1 25 55
M  V30 93 1 27 48
M  V30 94 1 28 90
M  V30 95 1 29 72
M  V30 96 1 30 79
M  V30 97 1 32 58
M  V30 98 1 33 54
M  V30 99 1 34 75
M  V30 100 1 35 81
M  V30 101 1 37 84
M  V30 102 1 38 60
M  V30 103 1 39 78
M  V30 104 1 40 51
M  V30 105 1 42 63
M  V30 106 1 43 93
M  V30 107 1 44 57
M  V30 108 1 45 69
M  V30 END BOND
M  V30 END CTAB
M  END

$$$$
