
     RDKit          3D

  0  0  0  0  0  0  0  0  0  0999 V3000
M  V30 BEGIN CTAB
M  V30 COUNTS 99 108 0 0 0
M  V30 BEGIN ATOM
M  V30 1 Pd 1.4628 -1.4185 3.5329 0
M  V30 2 Pb 1.0552 -2.3123 3.7306 0
M  V30 3 Pb 1.5078 -1.1910 4.5056 0
M  V30 4 Pb 1.8537 -0.5080 3.3787 0
M  V30 5 Pb 1.3237 -1.6124 2.5579 0
M  V30 6 Pd -4.7357 2.0477 1.1132 0
M  V30 7 Pb -5.5805 1.9430 0.5925 0
M  V30 8 Pb -3.8711 2.2141 1.5944 0
M  V30 9 Pb -4.3733 2.5562 0.3312 0
M  V30 10 Pb -5.0985 1.4129 1.8090 0
M  V30 11 Pd 3.1984 -2.1307 -3.9502 0
M  V30 12 Pb 2.4238 -2.3004 -3.3432 0
M  V30 13 Pb 3.9993 -1.8682 -4.4903 0
M  V30 14 Pb 3.7667 -2.2301 -3.1380 0
M  V30 15 Pb 2.6100 -2.0753 -4.7602 0
M  V30 16 Pd -4.6947 -1.2572 -1.5908 0
M  V30 17 Pb -4.8186 -0.9403 -0.6464 0
M  V30 18 Pb -4.5350 -1.5097 -2.5427 0
M  V30 19 Pb -5.4841 -0.7048 -1.8379 0
M  V30 20 Pb -3.9402 -1.8271 -1.2845 0
M  V30 21 Pd 5.8013 1.8523 1.5012 0
M  V30 22 Pb 5.0142 1.8506 2.1184 0
M  V30 23 Pb 5.7744 0.8629 1.4107 0
M  V30 24 Pb 5.7973 2.8483 1.4916 0
M  V30 25 Pb 6.4976 1.8582 0.7652 0
M  V30 26 Pd -2.2372 0.7471 5.5490 0
M  V30 27 Pb -1.8446 1.3776 4.8891 0
M  V30 28 Pb -2.6654 0.0893 6.1623 0
M  V30 29 Pb -3.0242 0.7006 4.9315 0
M  V30 30 Pb -1.3923 0.6876 6.0788 0
M  V30 31 Pd -1.2149 0.5953 -5.4174 0
M  V30 32 Pb -1.6903 1.2925 -4.8753 0
M  V30 33 Pb -0.6894 -0.1058 -5.8982 0
M  V30 34 Pb -1.9586 -0.0639 -5.2891 0
M  V30 35 Pb -0.4755 1.2382 -5.6139 0
M  V30 36 Pd -3.5040 -2.9737 3.4377 0
M  V30 37 Pb -3.2231 -3.0147 2.4777 0
M  V30 38 Pb -3.7320 -2.9488 4.4080 0
M  V30 39 Pb -4.2675 -2.3331 3.2837 0
M  V30 40 Pb -2.7007 -3.5326 3.6432 0
M  V30 41 Pd 5.9765 2.5006 -4.1025 0
M  V30 42 Pb 6.6229 2.2686 -3.3582 0
M  V30 43 Pb 5.9021 3.4128 -3.7085 0
M  V30 44 Pb 6.0582 1.5868 -4.5119 0
M  V30 45 Pb 5.2461 2.7230 -4.7443 0
M  V30 46 Ag 5.7850 3.5557 1.2719 0
M  V30 47 Fe 5.8035 4.3308 -0.9535 0
M  V30 48 Ag 5.8623 4.0257 -3.2904 0
M  V30 49 Ag 1.1391 -1.7973 1.8504 0
M  V30 50 Fe 1.5143 -2.0918 -0.4788 0
M  V30 51 Ag 1.9070 -2.3781 -2.8061 0
M  V30 52 Ag 0.0950 1.6853 -5.8046 0
M  V30 53 Fe 2.3636 2.3258 -5.5288 0
M  V30 54 Ag 4.6419 2.8765 -5.1569 0
M  V30 55 Ag 4.1381 -2.3021 -2.4947 0
M  V30 56 Fe 4.9934 -1.2091 -0.5752 0
M  V30 57 Ag 5.7489 0.1464 1.2139 0
M  V30 58 Ag -4.1170 2.8580 -0.3072 0
M  V30 59 Fe -3.0627 2.3976 -2.3880 0
M  V30 60 Ag -2.0042 1.8180 -4.4366 0
M  V30 61 Ag -4.9248 -0.6678 0.0484 0
M  V30 62 Fe -4.1549 0.0239 2.1914 0
M  V30 63 Ag -3.5682 0.6337 4.4166 0
M  V30 64 Ba 2.1221 0.1957 3.3812 0
M  V30 65 Ga 3.2781 0.9949 2.9250 0
M  V30 66 Ba 4.3821 1.8903 2.5212 0
M  V30 67 Ba 4.6122 -1.6332 -4.8558 0
M  V30 68 Ga 5.3657 -0.3602 -4.8518 0
M  V30 69 Ba 6.1189 0.9130 -4.8463 0
M  V30 70 Ba 1.4897 -0.9415 5.2127 0
M  V30 71 Ga 0.4207 -0.1874 5.8930 0
M  V30 72 Ba -0.7407 0.5507 6.4225 0
M  V30 73 Ba -3.0052 -0.4538 6.5426 0
M  V30 74 Ga -3.4817 -1.7096 5.9545 0
M  V30 75 Ba -3.8608 -2.8675 5.1386 0
M  V30 76 Ba 0.7349 -2.9790 3.8662 0
M  V30 77 Ga -0.6581 -3.4682 3.8399 0
M  V30 78 Ba -2.0681 -3.9045 3.7986 0
M  V30 79 Ba -6.1599 1.8534 0.1293 0
M  V30 80 Ga -6.2550 0.8502 -0.9345 0
M  V30 81 Ba -6.0708 -0.2508 -1.8827 0
M  V30 82 Ba -4.3956 -1.6658 -3.2607 0
M  V30 83 Ga -3.4448 -1.1172 -4.2462 0
M  V30 84 Ba -2.5022 -0.5822 -5.2469 0
M  V30 85 Ba 7.0034 1.8393 0.1935 0
M  V30 86 Ga 7.0130 1.9868 -1.2917 0
M  V30 87 Ba 7.0940 2.1224 -2.7758 0
M  V30 88 Ba -5.4278 0.8930 2.2550 0
M  V30 89 Ga -5.1294 -0.4719 2.7618 0
M  V30 90 Ba -4.8374 -1.8319 3.2769 0
M  V30 91 Ba -3.2044 2.3998 1.8939 0
M  V30 92 Ga -2.4090 2.1252 3.1046 0
M  V30 93 Ba -1.6445 1.8241 4.3286 0
M  V30 94 Ba -3.4054 -2.2540 -0.9919 0
M  V30 95 Ga -3.1717 -2.6734 0.4003 0
M  V30 96 Ba -2.9314 -3.0979 1.7898 0
M  V30 97 Ba 2.1737 -2.0593 -5.3734 0
M  V30 98 Ga 0.9560 -1.3438 -5.8047 0
M  V30 99 Ba -0.2616 -0.6244 -6.2297 0
M  V30 END ATOM
M  V30 BEGIN BOND
M  V30 1 1 1 2
M  V30 2 1 1 3
M  V30 3 1 1 4
M  V30 4 1 1 5
M  V30 5 1 6 7
M  V30 6 1 6 8
M  V30 7 1 6 9
M  V30 8 1 6 10
M  V30 9 1 11 12
M  V30 10 1 11 13
M  V30 11 1 11 14
M  V30 12 1 11 15
M  V30 13 1 16 17
M  V30 14 1 16 18
M  V30 15 1 16 19
M  V30 16 1 16 20
M  V30 17 1 21 22
M  V30 18 1 21 23
M  V30 19 1 21 24
M  V30 20 1 21 25
M  V30 21 1 26 27
M  V30 22 1 26 28
M  V30 23 1 26 29
M  V30 24 1 26 30
M  V30 25 1 31 32
M  V30 26 1 31 33
M  V30 27 1 31 34
M  V30 28 1 31 35
M  V30 29 1 36 37
M  V30 30 1 36 38
M  V30 31 1 36 39
M  V30 32 1 36 40
M  V30 33 1 41 42
M  V30 34 1 41 43
M  V30 35 1 41 44
M  V30 36 1 41 45
M  V30 37 1 46 47
M  V30 38 1 47 48
M  V30 39 1 49 50
M  V30 40 1 50 51
M  V30 41 1 52 53
M  V30 42 1 53 54
M  V30 43 1 55 56
M  V30 44 1 56 57
M  V30 45 1 58 59
M  V30 46 1 59 60
M  V30 47 1 61 62
M  V30 48 1 62 63
M  V30 49 1 64 65
M  V30 50 1 65 66
M  V30 51 1 67 68
M  V30 52 1 68 69
M  V30 53 1 70 71
M  V30 54 1 71 72
M  V30 55 1 73 74
M  V30 56 1 74 75
M  V30 57 1 76 77
M  V30 58 1 77 78
M  V30 59 1 79 80
M  V30 60 1 80 81
M  V30 61 1 82 83
M  V30 62 1 83 84
M  V30 63 1 85 86
M  V30 64 1 86 87
M  V30 65 1 88 89
M  V30 66 1 89 90
M  V30 67 1 91 92
M  V30 68 1 92 93
M  V30 69 1 94 95
M  V30 70 1 95 96
M  V30 71 1 97 98
M  V30 72 1 98 99
M  V30 73 1 2 76
M  V30 74 1 3 70
M  V30 75 1 4 64
M  V30 76 1 5 49
M  V30 77 1 7 79
M  V30 78 1 8 91
M  V30 79 1 9 58
M  V30 80 1 10 88
M  V30 81 1 12 51
M  V30 82 1 13 67
M  V30 83 1 14 55
M  V30 84 1 15 97
M  V30 85 1 17 61
M  V30 86 1 18 82
M  V30 87 1 19 81
M  V30 88 1 20 94
M  V30 89 1 22 66
M  V30 90 1 23 57
M  V30 91 1 24 46
M  V30 92 1 25 85
M  V30 93 1 27 93
M  V30 94 1 28 73
M  V30 95 1 29 63
M  V30 96 1 30 72
M  V30 97 1 32 60
M  V30 98 1 33 99
M  V30 99 1 34 84
M  V30 100 1 35 52
M  V30 101 1 37 96
M  V30 102 1 38 75
M  V30 103 1 39 90
M  V30 104 1 40 78
M  V30 105 1 42 87
M  V30 106 1 43 48
M  V30 107 1 44 69
M  V30 108 1 45 54
M  V30 END BOND
M  V30 END CTAB
M  END

$$$$
