
     RDKit          3D

  0  0  0  0  0  0  0  0  0  0999 V3000
M  V30 BEGIN CTAB
M  V30 COUNTS 99 108 0 0 0
M  V30 BEGIN ATOM
M  V30 1 Pd -0.8411 4.3904 3.9673 0
M  V30 2 Pb -1.6676 4.8332 3.6245 0
M  V30 3 Pb -0.2985 5.0056 3.3935 0
M  V30 4 Pb -0.0134 3.9613 4.3361 0
M  V30 5 Pb -1.4112 3.7062 4.4169 0
M  V30 6 Pd 2.2412 0.7534 -4.2905 0
M  V30 7 Pb 1.8731 1.6608 -4.4919 0
M  V30 8 Pb 2.5465 -0.1589 -4.0341 0
M  V30 9 Pb 1.9594 0.3885 -5.1959 0
M  V30 10 Pb 2.4014 1.0550 -3.3526 0
M  V30 11 Pd -2.0592 -2.0505 -6.3544 0
M  V30 12 Pb -2.5734 -1.4557 -6.9635 0
M  V30 13 Pb -1.1813 -1.7708 -6.7714 0
M  V30 14 Pb -1.5642 -2.7077 -5.7943 0
M  V30 15 Pb -2.8765 -2.1210 -5.7621 0
M  V30 16 Pd -2.6521 -1.7222 1.2284 0
M  V30 17 Pb -2.5049 -2.5829 1.7082 0
M  V30 18 Pb -3.0116 -1.3195 2.0677 0
M  V30 19 Pb -2.1709 -2.0844 0.4288 0
M  V30 20 Pb -2.7733 -0.8327 0.7869 0
M  V30 21 Pd -2.0868 5.8107 -0.8394 0
M  V30 22 Pb -1.5529 5.6476 -1.6708 0
M  V30 23 Pb -2.9383 5.6385 -1.3376 0
M  V30 24 Pb -2.6182 5.9445 -0.0062 0
M  V30 25 Pb -1.2534 5.9966 -0.3108 0
M  V30 26 Pd 4.7668 -1.2181 4.9761 0
M  V30 27 Pb 4.2481 -0.3698 5.1078 0
M  V30 28 Pb 5.3336 -2.0308 4.8730 0
M  V30 29 Pb 5.1237 -0.9072 4.0980 0
M  V30 30 Pb 4.3352 -1.6528 5.7693 0
M  V30 31 Pd -5.0074 1.5756 -3.0801 0
M  V30 32 Pb -4.9003 0.5904 -3.3146 0
M  V30 33 Pb -5.4418 1.7165 -3.9637 0
M  V30 34 Pb -5.0987 2.5563 -2.9006 0
M  V30 35 Pb -4.4959 1.4815 -2.2248 0
M  V30 36 Pd 2.9365 -5.5297 4.2798 0
M  V30 37 Pb 3.0091 -5.7421 3.3060 0
M  V30 38 Pb 2.8818 -5.1496 5.2062 0
M  V30 39 Pb 3.9265 -5.4617 4.3334 0
M  V30 40 Pb 1.9441 -5.5818 4.2078 0
M  V30 41 Pd 2.6740 -2.0982 0.1471 0
M  V30 42 Pb 2.5392 -1.1247 -0.0398 0
M  V30 43 Pb 1.7971 -2.3348 -0.2850 0
M  V30 44 Pb 3.5550 -1.8203 0.5399 0
M  V30 45 Pb 2.8433 -3.0772 0.3056 0
M  V30 46 Ag -3.0459 -0.9976 -7.3039 0
M  V30 47 Fe -4.5844 0.5645 -6.4466 0
M  V30 48 Ag -5.6065 1.7433 -4.6845 0
M  V30 49 Ag -2.3525 -3.2030 2.0941 0
M  V30 50 Fe -0.6431 -4.4743 3.1332 0
M  V30 51 Ag 1.2052 -5.5953 4.1051 0
M  V30 52 Ag 1.5695 2.3427 -4.5629 0
M  V30 53 Fe 0.2134 3.9713 -3.4891 0
M  V30 54 Ag -1.1563 5.4993 -2.2917 0
M  V30 55 Ag 2.5838 -0.8817 -3.8798 0
M  V30 56 Fe 0.9617 -2.5027 -4.4043 0
M  V30 57 Ag -1.0836 -3.1092 -5.3973 0
M  V30 58 Ag 0.6038 3.6578 4.6415 0
M  V30 59 Fe 2.2199 1.9303 4.8848 0
M  V30 60 Ag 3.9039 0.2880 5.2339 0
M  V30 61 Ag -1.8550 3.1456 4.6341 0
M  V30 62 Fe -2.6443 1.0562 3.8375 0
M  V30 63 Ag -3.1819 -0.9516 2.6959 0
M  V30 64 Ba 5.3712 -0.7827 3.4028 0
M  V30 65 Ga 4.7921 -1.1448 2.0927 0
M  V30 66 Ba 4.1991 -1.5195 0.7923 0
M  V30 67 Ba 1.7463 0.0790 -5.8638 0
M  V30 68 Ga 0.6059 -0.7101 -6.4222 0
M  V30 69 Ba -0.5133 -1.4995 -7.0213 0
M  V30 70 Ba 0.0691 5.4329 2.8963 0
M  V30 71 Ga -0.2646 5.8080 1.5045 0
M  V30 72 Ba -0.6516 6.1496 0.1177 0
M  V30 73 Ba -2.2779 5.1749 3.3588 0
M  V30 74 Ga -2.6705 5.6112 2.0095 0
M  V30 75 Ba -2.9961 6.0193 0.6339 0
M  V30 76 Ba 3.9977 -2.0718 6.2960 0
M  V30 77 Ga 3.4175 -3.4267 6.1556 0
M  V30 78 Ba 2.8821 -4.7750 5.8601 0
M  V30 79 Ba 2.4510 1.2463 -2.6306 0
M  V30 80 Ga 2.4822 0.4454 -1.3929 0
M  V30 81 Ba 2.5109 -0.3869 -0.1760 0
M  V30 82 Ba 5.7392 -2.6522 4.7977 0
M  V30 83 Ga 5.2927 -4.0316 4.5867 0
M  V30 84 Ba 4.6573 -5.3352 4.3796 0
M  V30 85 Ba -3.5973 5.5309 -1.6823 0
M  V30 86 Ga -4.3635 4.3960 -2.2352 0
M  V30 87 Ba -5.1712 3.2974 -2.8022 0
M  V30 88 Ba -1.7597 -2.3470 -0.1428 0
M  V30 89 Ga -0.3017 -2.4304 -0.3842 0
M  V30 90 Ba 1.1540 -2.5194 -0.6367 0
M  V30 91 Ba 3.0722 -5.8181 2.5625 0
M  V30 92 Ga 3.0130 -4.8220 1.4700 0
M  V30 93 Ba 2.9539 -3.8214 0.3817 0
M  V30 94 Ba -2.8484 -0.1337 0.5242 0
M  V30 95 Ga -3.4945 0.6143 -0.5719 0
M  V30 96 Ba -4.0771 1.4970 -1.6014 0
M  V30 97 Ba -3.4577 -2.1142 -5.2671 0
M  V30 98 Ga -4.1390 -1.0994 -4.4051 0
M  V30 99 Ba -4.8735 -0.1517 -3.5114 0
M  V30 END ATOM
M  V30 BEGIN BOND
M  V30 1 1 1 2
M  V30 2 1 1 3
M  V30 3 1 1 4
M  V30 4 1 1 5
M  V30 5 1 6 7
M  V30 6 1 6 8
M  V30 7 1 6 9
M  V30 8 1 6 10
M  V30 9 1 11 12
M  V30 10 1 11 13
M  V30 11 1 11 14
M  V30 12 1 11 15
M  V30 13 1 16 17
M  V30 14 1 16 18
M  V30 15 1 16 19
M  V30 16 1 16 20
M  V30 17 1 21 22
M  V30 18 1 21 23
M  V30 19 1 21 24
M  V30 20 1 21 25
M  V30 21 1 26 27
M  V30 22 1 26 28
M  V30 23 1 26 29
M  V30 24 1 26 30
M  V30 25 1 31 32
M  V30 26 1 31 33
M  V30 27 1 31 34
M  V30 28 1 31 35
M  V30 29 1 36 37
M  V30 30 1 36 38
M  V30 31 1 36 39
M  V30 32 1 36 40
M  V30 33 1 41 42
M  V30 34 1 41 43
M  V30 35 1 41 44
M  V30 36 1 41 45
M  V30 37 1 46 47
M  V30 38 1 47 48
M  V30 39 1 49 50
M  V30 40 1 50 51
M  V30 41 1 52 53
M  V30 42 1 53 54
M  V30 43 1 55 56
M  V30 44 1 56 57
M  V30 45 1 58 59
M  V30 46 1 59 60
M  V30 47 1 61 62
M  V30 48 1 62 63
M  V30 49 1 64 65
M  V30 50 1 65 66
M  V30 51 1 67 68
M  V30 52 1 68 69
M  V30 53 1 70 71
M  V30 54 1 71 72
M  V30 55 1 73 74
M  V30 56 1 74 75
M  V30 57 1 76 77
M  V30 58 1 77 78
M  V30 59 1 79 80
M  V30 60 1 80 81
M  V30 61 1 82 83
M  V30 62 1 83 84
M  V30 63 1 85 86
M  V30 64 1 86 87
M  V30 65 1 88 89
M  V30 66 1 89 90
M  V30 67 1 91 92
M  V30 68 1 92 93
M  V30 69 1 94 95
M  V30 70 1 95 96
M  V30 71 1 97 98
M  V30 72 1 98 99
M  V30 73 1 2 73
M  V30 74 1 3 70
M  V30 75 1 4 58
M  V30 76 1 5 61
M  V30 77 1 7 52
M  V30 78 1 8 55
M  V30 79 1 9 67
M  V30 80 1 10 79
M  V30 81 1 12 46
M  V30 82 1 13 69
M  V30 83 1 14 57
M  V30 84 1 15 97
M  V30 85 1 17 49
M  V30 86 1 18 63
M  V30 87 1 19 88
M  V30 88 1 20 94
M  V30 89 1 22 54
M  V30 90 1 23 85
M  V30 91 1 24 75
M  V30 92 1 25 72
M  V30 93 1 27 60
M  V30 94 1 28 82
M  V30 95 1 29 64
M  V30 96 1 30 76
M  V30 97 1 32 99
M  V30 98 1 33 48
M  V30 99 1 34 87
M  V30 100 1 35 96
M  V30 101 1 37 91
M  V30 102 1 38 78
M  V30 103 1 39 84
M  V30 104 1 40 51
M  V30 105 1 42 81
M  V30 106 1 43 90
M  V30 107 1 44 66
M  V30 108 1 45 93
M  V30 END BOND
M  V30 END CTAB
M  END

$$$$
