
     RDKit          3D

  0  0  0  0  0  0  0  0  0  0999 V3000
M  V30 BEGIN CTAB
M  V30 COUNTS 99 108 0 0 0
M  V30 BEGIN ATOM
M  V30 1 Pd 3.1343 -2.2330 4.1690 0
M  V30 2 Pb 3.7558 -2.8471 3.6802 0
M  V30 3 Pb 2.5040 -1.6256 4.6550 0
M  V30 4 Pb 3.2241 -2.7712 5.0080 0
M  V30 5 Pb 3.0488 -1.6993 3.3270 0
M  V30 6 Pd -0.5252 -3.5392 7.4921 0
M  V30 7 Pb -0.7683 -4.4933 7.6671 0
M  V30 8 Pb 0.4471 -3.7486 7.5876 0
M  V30 9 Pb -0.2780 -2.6048 7.2359 0
M  V30 10 Pb -1.4929 -3.3535 7.3230 0
M  V30 11 Pd -2.5417 0.7580 -3.9609 0
M  V30 12 Pb -2.0273 0.6240 -4.8095 0
M  V30 13 Pb -3.0022 0.9023 -3.0854 0
M  V30 14 Pb -3.0559 1.5452 -4.3110 0
M  V30 15 Pb -2.1191 -0.0910 -3.6365 0
M  V30 16 Pd -3.0606 6.5057 -5.1478 0
M  V30 17 Pb -3.0402 6.6590 -4.1460 0
M  V30 18 Pb -2.7708 6.2491 -6.0622 0
M  V30 19 Pb -2.6023 7.3755 -5.2958 0
M  V30 20 Pb -3.5225 5.6226 -5.0511 0
M  V30 21 Pd 2.6459 -4.1736 -0.5797 0
M  V30 22 Pb 3.0953 -3.3894 -1.0046 0
M  V30 23 Pb 2.1995 -4.9683 -0.1701 0
M  V30 24 Pb 1.8394 -4.0051 -1.1471 0
M  V30 25 Pb 3.4185 -4.3001 0.0427 0
M  V30 26 Pd -2.7077 -5.9610 4.0806 0
M  V30 27 Pb -2.5266 -6.4456 4.9355 0
M  V30 28 Pb -2.7935 -5.4214 3.2439 0
M  V30 29 Pb -3.2571 -5.3067 4.5986 0
M  V30 30 Pb -2.0780 -6.5424 3.5725 0
M  V30 31 Pd 2.3257 2.2126 -5.1327 0
M  V30 32 Pb 2.7611 1.5137 -4.5656 0
M  V30 33 Pb 2.8588 2.8870 -4.6121 0
M  V30 34 Pb 1.7385 1.5501 -5.6002 0
M  V30 35 Pb 1.8982 2.8833 -5.7392 0
M  V30 36 Pd -0.5331 0.5503 0.6770 0
M  V30 37 Pb -0.2177 1.4888 0.8196 0
M  V30 38 Pb -1.4603 0.8629 0.4831 0
M  V30 39 Pb 0.4073 0.2367 0.8170 0
M  V30 40 Pb -0.8849 -0.3804 0.5744 0
M  V30 41 Pd 1.0775 5.8600 -1.5260 0
M  V30 42 Pb 1.3029 6.6282 -2.1132 0
M  V30 43 Pb 0.1076 6.1735 -1.4935 0
M  V30 44 Pb 1.9879 5.4935 -1.7205 0
M  V30 45 Pb 0.9078 5.1848 -0.8049 0
M  V30 46 Ag -2.1241 7.9363 -5.3360 0
M  V30 47 Fe -0.1077 8.1198 -4.1488 0
M  V30 48 Ag 1.3603 7.2211 -2.5514 0
M  V30 49 Ag 1.8597 -5.5564 0.1462 0
M  V30 50 Fe 0.1779 -6.3373 1.6261 0
M  V30 51 Ag -1.5630 -6.8732 3.1456 0
M  V30 52 Ag -2.7668 -5.0204 2.6112 0
M  V30 53 Fe -2.0105 -3.0436 1.5333 0
M  V30 54 Ag -1.2259 -1.0464 0.5149 0
M  V30 55 Ag 3.4227 -2.8060 -1.3406 0
M  V30 56 Fe 3.2505 -0.8957 -2.7400 0
M  V30 57 Ag 3.1285 1.0224 -4.1341 0
M  V30 58 Ag -1.8403 -0.7671 -3.4596 0
M  V30 59 Fe -0.2822 -2.2745 -2.4853 0
M  V30 60 Ag 1.2202 -3.8579 -1.5447 0
M  V30 61 Ag -2.3399 6.0066 -6.6172 0
M  V30 62 Fe -0.3889 4.6588 -6.6415 0
M  V30 63 Ag 1.5076 3.2936 -6.2321 0
M  V30 64 Ba -3.5351 2.0828 -4.5326 0
M  V30 65 Ga -3.6402 3.5380 -4.7688 0
M  V30 66 Ba -3.8920 4.9685 -5.0426 0
M  V30 67 Ba 0.0232 2.1803 0.9821 0
M  V30 68 Ga 0.4005 3.4419 0.3136 0
M  V30 69 Ba 0.8113 4.7696 -0.1847 0
M  V30 70 Ba -2.2162 -3.2747 7.1421 0
M  V30 71 Ga -2.9813 -3.9899 6.1052 0
M  V30 72 Ba -3.5904 -4.7933 5.0302 0
M  V30 73 Ba 2.0269 -1.1973 5.0465 0
M  V30 74 Ga 0.9730 -1.5221 6.0274 0
M  V30 75 Ba -0.0628 -1.9268 6.9978 0
M  V30 76 Ba 3.2662 3.3327 -4.1582 0
M  V30 77 Ga 2.9721 4.2846 -3.0631 0
M  V30 78 Ba 2.6456 5.2340 -1.9751 0
M  V30 79 Ba 3.2662 -3.1591 5.6493 0
M  V30 80 Ga 2.2534 -3.5446 6.6498 0
M  V30 81 Ba 1.1824 -3.8916 7.6027 0
M  V30 82 Ba 3.0263 -1.3251 2.6767 0
M  V30 83 Ga 2.0372 -0.6493 1.8142 0
M  V30 84 Ba 1.1318 0.0492 0.8809 0
M  V30 85 Ba -0.9831 -5.2096 7.7241 0
M  V30 86 Ga -1.6689 -6.0422 6.7192 0
M  V30 87 Ba -2.3497 -6.7284 5.6062 0
M  V30 88 Ba -1.5856 0.4722 -5.3987 0
M  V30 89 Ga -0.1737 0.7830 -5.7058 0
M  V30 90 Ba 1.2408 1.1222 -5.9666 0
M  V30 91 Ba 4.2096 -3.2943 3.2823 0
M  V30 92 Ga 4.1199 -3.8534 1.9193 0
M  V30 93 Ba 3.9665 -4.3795 0.5488 0
M  V30 94 Ba -2.9230 6.7526 -3.3944 0
M  V30 95 Ga -1.7617 6.5672 -2.4637 0
M  V30 96 Ba -0.6295 6.3974 -1.4950 0
M  V30 97 Ba -3.3192 1.0476 -2.4219 0
M  V30 98 Ga -2.7828 1.0629 -1.0502 0
M  V30 99 Ba -2.1562 1.0482 0.2825 0
M  V30 END ATOM
M  V30 BEGIN BOND
M  V30 1 1 1 2
M  V30 2 1 1 3
M  V30 3 1 1 4
M  V30 4 1 1 5
M  V30 5 1 6 7
M  V30 6 1 6 8
M  V30 7 1 6 9
M  V30 8 1 6 10
M  V30 9 1 11 12
M  V30 10 1 11 13
M  V30 11 1 11 14
M  V30 12 1 11 15
M  V30 13 1 16 17
M  V30 14 1 16 18
M  V30 15 1 16 19
M  V30 16 1 16 20
M  V30 17 1 21 22
M  V30 18 1 21 23
M  V30 19 1 21 24
M  V30 20 1 21 25
M  V30 21 1 26 27
M  V30 22 1 26 28
M  V30 23 1 26 29
M  V30 24 1 26 30
M  V30 25 1 31 32
M  V30 26 1 31 33
M  V30 27 1 31 34
M  V30 28 1 31 35
M  V30 29 1 36 37
M  V30 30 1 36 38
M  V30 31 1 36 39
M  V30 32 1 36 40
M  V30 33 1 41 42
M  V30 34 1 41 43
M  V30 35 1 41 44
M  V30 36 1 41 45
M  V30 37 1 46 47
M  V30 38 1 47 48
M  V30 39 1 49 50
M  V30 40 1 50 51
M  V30 41 1 52 53
M  V30 42 1 53 54
M  V30 43 1 55 56
M  V30 44 1 56 57
M  V30 45 1 58 59
M  V30 46 1 59 60
M  V30 47 1 61 62
M  V30 48 1 62 63
M  V30 49 1 64 65
M  V30 50 1 65 66
M  V30 51 1 67 68
M  V30 52 1 68 69
M  V30 53 1 70 71
M  V30 54 1 71 72
M  V30 55 1 73 74
M  V30 56 1 74 75
M  V30 57 1 76 77
M  V30 58 1 77 78
M  V30 59 1 79 80
M  V30 60 1 80 81
M  V30 61 1 82 83
M  V30 62 1 83 84
M  V30 63 1 85 86
M  V30 64 1 86 87
M  V30 65 1 88 89
M  V30 66 1 89 90
M  V30 67 1 91 92
M  V30 68 1 92 93
M  V30 69 1 94 95
M  V30 70 1 95 96
M  V30 71 1 97 98
M  V30 72 1 98 99
M  V30 73 1 2 91
M  V30 74 1 3 73
M  V30 75 1 4 79
M  V30 76 1 5 82
M  V30 77 1 7 85
M  V30 78 1 8 81
M  V30 79 1 9 75
M  V30 80 1 10 70
M  V30 81 1 12 88
M  V30 82 1 13 97
M  V30 83 1 14 64
M  V30 84 1 15 58
M  V30 85 1 17 94
M  V30 86 1 18 61
M  V30 87 1 19 46
M  V30 88 1 20 66
M  V30 89 1 22 55
M  V30 90 1 23 49
M  V30 91 1 24 60
M  V30 92 1 25 93
M  V30 93 1 27 87
M  V30 94 1 28 52
M  V30 95 1 29 72
M  V30 96 1 30 51
M  V30 97 1 32 57
M  V30 98 1 33 76
M  V30 99 1 34 90
M  V30 100 1 35 63
M  V30 101 1 37 67
M  V30 102 1 38 99
M  V30 103 1 39 84
M  V30 104 1 40 54
M  V30 105 1 42 48
M  V30 106 1 43 96
M  V30 107 1 44 78
M  V30 108 1 45 69
M  V30 END BOND
M  V30 END CTAB
M  END

$$$$
