
     RDKit          3D

  0  0  0  0  0  0  0  0  0  0999 V3000
M  V30 BEGIN CTAB
M  V30 COUNTS 99 108 0 0 0
M  V30 BEGIN ATOM
M  V30 1 Pd 0.1420 5.4061 -0.8036 0
M  V30 2 Pb 0.1786 4.9882 -1.7145 0
M  V30 3 Pb -0.6454 5.9575 -1.0971 0
M  V30 4 Pb 0.9676 4.9235 -0.5209 0
M  V30 5 Pb 0.1509 5.8175 0.1091 0
M  V30 6 Pd -4.8466 -0.9264 0.1907 0
M  V30 7 Pb -4.0008 -1.3553 -0.1240 0
M  V30 8 Pb -5.6547 -0.4271 0.4895 0
M  V30 9 Pb -4.6029 -1.0846 1.1457 0
M  V30 10 Pb -5.0193 -0.5573 -0.7246 0
M  V30 11 Pd -0.7301 -5.9755 -2.2599 0
M  V30 12 Pb -0.0539 -5.6946 -2.9326 0
M  V30 13 Pb -1.3254 -6.1858 -1.4873 0
M  V30 14 Pb -0.1046 -6.6835 -1.9441 0
M  V30 15 Pb -1.2559 -5.1594 -2.5138 0
M  V30 16 Pd 4.7949 -4.7707 1.9036 0
M  V30 17 Pb 4.4513 -5.6026 1.4720 0
M  V30 18 Pb 5.3600 -4.5724 1.0991 0
M  V30 19 Pb 4.1701 -4.9246 2.6719 0
M  V30 20 Pb 5.1109 -3.9175 2.3125 0
M  V30 21 Pd -0.1634 -3.6003 2.0632 0
M  V30 22 Pb -0.6087 -3.1905 1.2666 0
M  V30 23 Pb -0.7182 -4.4178 1.8998 0
M  V30 24 Pb 0.3489 -4.0451 2.7996 0
M  V30 25 Pb 0.3445 -2.7550 2.2408 0
M  V30 26 Pd 5.6173 -0.2213 -0.5000 0
M  V30 27 Pb 5.9450 -1.1284 -0.7723 0
M  V30 28 Pb 5.5342 0.1006 -1.4473 0
M  V30 29 Pb 5.2718 0.6645 -0.2045 0
M  V30 30 Pb 5.7096 -0.4995 0.4560 0
M  V30 31 Pd 1.5605 0.6376 -3.9324 0
M  V30 32 Pb 1.2262 1.5840 -3.8825 0
M  V30 33 Pb 2.5181 0.9268 -3.9666 0
M  V30 34 Pb 0.6323 0.2627 -3.8559 0
M  V30 35 Pb 1.8638 -0.2984 -4.0872 0
M  V30 36 Pd -1.0377 3.5745 4.0835 0
M  V30 37 Pb -0.2809 2.9475 3.8967 0
M  V30 38 Pb -1.8126 4.1969 4.1838 0
M  V30 39 Pb -1.5816 2.7667 4.3160 0
M  V30 40 Pb -0.5256 4.3762 3.7740 0
M  V30 41 Pd -5.4994 5.7492 -0.7541 0
M  V30 42 Pb -6.2094 5.1840 -0.3433 0
M  V30 43 Pb -4.7321 6.2656 -1.1378 0
M  V30 44 Pb -5.3943 6.2106 0.1235 0
M  V30 45 Pb -5.5274 5.1238 -1.5363 0
M  V30 46 Ag 0.7016 -2.1125 2.3994 0
M  V30 47 Fe 0.5430 0.1649 3.0604 0
M  V30 48 Ag 0.2301 2.4253 3.7243 0
M  V30 49 Ag -1.5419 -4.4882 -2.7046 0
M  V30 50 Fe -0.9130 -2.2602 -3.2597 0
M  V30 51 Ag -0.0151 -0.1177 -3.7809 0
M  V30 52 Ag -5.1333 -0.1340 -1.3363 0
M  V30 53 Fe -5.3637 2.1664 -1.8954 0
M  V30 54 Ag -5.5410 4.5358 -2.0056 0
M  V30 55 Ag -6.2060 0.0452 0.6558 0
M  V30 56 Fe -6.6746 2.3537 0.4190 0
M  V30 57 Ag -6.6629 4.6759 -0.0412 0
M  V30 58 Ag 0.4731 -5.3868 -3.3582 0
M  V30 59 Fe 1.3641 -3.2605 -3.9003 0
M  V30 60 Ag 2.0222 -1.0109 -4.2413 0
M  V30 61 Ag 0.4333 -7.1074 -1.6493 0
M  V30 62 Fe 2.3378 -6.8440 -0.2628 0
M  V30 63 Ag 4.1409 -6.1913 1.1310 0
M  V30 64 Ag -4.3909 -1.0417 1.8625 0
M  V30 65 Fe -3.1983 0.4404 3.2842 0
M  V30 66 Ag -1.9589 2.1241 4.4115 0
M  V30 67 Ag 1.6045 4.6248 -0.2684 0
M  V30 68 Fe 3.2844 2.9554 -0.1509 0
M  V30 69 Ag 4.9965 1.3229 0.0120 0
M  V30 70 Ag -2.3591 4.7078 4.1501 0
M  V30 71 Fe -3.8907 5.6987 2.6333 0
M  V30 72 Ag -5.2642 6.4054 0.8329 0
M  V30 73 Ba -3.3556 -1.6336 -0.3841 0
M  V30 74 Ga -2.1504 -2.2841 0.1634 0
M  V30 75 Ba -0.9126 -2.9370 0.6289 0
M  V30 76 Ba 0.2039 4.7078 -2.4124 0
M  V30 77 Ga 0.5993 3.4643 -3.1102 0
M  V30 78 Ba 0.9559 2.2869 -3.9321 0
M  V30 79 Ba 3.6643 -5.0265 3.2192 0
M  V30 80 Ga 2.2226 -4.7137 3.3071 0
M  V30 81 Ba 0.7853 -4.3698 3.3181 0
M  V30 82 Ba 5.7565 -4.3913 0.4849 0
M  V30 83 Ga 5.9855 -3.1206 -0.2368 0
M  V30 84 Ba 6.1849 -1.8254 -0.9228 0
M  V30 85 Ba 5.3418 -3.2577 2.5768 0
M  V30 86 Ga 5.5710 -1.9689 1.9016 0
M  V30 87 Ba 5.7831 -0.7065 1.1730 0
M  V30 88 Ba 0.2349 6.0905 0.8044 0
M  V30 89 Ga 0.0118 5.5587 2.1641 0
M  V30 90 Ba -0.2189 5.0111 3.5163 0
M  V30 91 Ba -1.1966 6.4038 -1.3562 0
M  V30 92 Ga -2.6730 6.4957 -1.3626 0
M  V30 93 Ba -4.1439 6.6479 -1.4070 0
M  V30 94 Ba 5.4714 0.4108 -2.1319 0
M  V30 95 Ga 4.3665 0.7387 -3.0592 0
M  V30 96 Ba 3.2572 1.0621 -3.9828 0
M  V30 97 Ba -1.6831 -6.3219 -0.8445 0
M  V30 98 Ga -1.4716 -5.6917 0.4721 0
M  V30 99 Ba -1.1753 -4.9916 1.7362 0
M  V30 END ATOM
M  V30 BEGIN BOND
M  V30 1 1 1 2
M  V30 2 1 1 3
M  V30 3 1 1 4
M  V30 4 1 1 5
M  V30 5 1 6 7
M  V30 6 1 6 8
M  V30 7 1 6 9
M  V30 8 1 6 10
M  V30 9 1 11 12
M  V30 10 1 11 13
M  V30 11 1 11 14
M  V30 12 1 11 15
M  V30 13 1 16 17
M  V30 14 1 16 18
M  V30 15 1 16 19
M  V30 16 1 16 20
M  V30 17 1 21 22
M  V30 18 1 21 23
M  V30 19 1 21 24
M  V30 20 1 21 25
M  V30 21 1 26 27
M  V30 22 1 26 28
M  V30 23 1 26 29
M  V30 24 1 26 30
M  V30 25 1 31 32
M  V30 26 1 31 33
M  V30 27 1 31 34
M  V30 28 1 31 35
M  V30 29 1 36 37
M  V30 30 1 36 38
M  V30 31 1 36 39
M  V30 32 1 36 40
M  V30 33 1 41 42
M  V30 34 1 41 43
M  V30 35 1 41 44
M  V30 36 1 41 45
M  V30 37 1 46 47
M  V30 38 1 47 48
M  V30 39 1 49 50
M  V30 40 1 50 51
M  V30 41 1 52 53
M  V30 42 1 53 54
M  V30 43 1 55 56
M  V30 44 1 56 57
M  V30 45 1 58 59
M  V30 46 1 59 60
M  V30 47 1 61 62
M  V30 48 1 62 63
M  V30 49 1 64 65
M  V30 50 1 65 66
M  V30 51 1 67 68
M  V30 52 1 68 69
M  V30 53 1 70 71
M  V30 54 1 71 72
M  V30 55 1 73 74
M  V30 56 1 74 75
M  V30 57 1 76 77
M  V30 58 1 77 78
M  V30 59 1 79 80
M  V30 60 1 80 81
M  V30 61 1 82 83
M  V30 62 1 83 84
M  V30 63 1 85 86
M  V30 64 1 86 87
M  V30 65 1 88 89
M  V30 66 1 89 90
M  V30 67 1 91 92
M  V30 68 1 92 93
M  V30 69 1 94 95
M  V30 70 1 95 96
M  V30 71 1 97 98
M  V30 72 1 98 99
M  V30 73 1 2 76
M  V30 74 1 3 91
M  V30 75 1 4 67
M  V30 76 1 5 88
M  V30 77 1 7 73
M  V30 78 1 8 55
M  V30 79 1 9 64
M  V30 80 1 10 52
M  V30 81 1 12 58
M  V30 82 1 13 97
M  V30 83 1 14 61
M  V30 84 1 15 49
M  V30 85 1 17 63
M  V30 86 1 18 82
M  V30 87 1 19 79
M  V30 88 1 20 85
M  V30 89 1 22 75
M  V30 90 1 23 99
M  V30 91 1 24 81
M  V30 92 1 25 46
M  V30 93 1 27 84
M  V30 94 1 28 94
M  V30 95 1 29 69
M  V30 96 1 30 87
M  V30 97 1 32 78
M  V30 98 1 33 96
M  V30 99 1 34 51
M  V30 100 1 35 60
M  V30 101 1 37 48
M  V30 102 1 38 70
M  V30 103 1 39 66
M  V30 104 1 40 90
M  V30 105 1 42 57
M  V30 106 1 43 93
M  V30 107 1 44 72
M  V30 108 1 45 54
M  V30 END BOND
M  V30 END CTAB
M  END

$$$$
