
     RDKit          3D

  0  0  0  0  0  0  0  0  0  0999 V3000
M  V30 BEGIN CTAB
M  V30 COUNTS 99 108 0 0 0
M  V30 BEGIN ATOM
M  V30 1 Pd 4.9789 0.1673 -3.7019 0
M  V30 2 Pb 5.6444 0.4274 -4.3968 0
M  V30 3 Pb 4.2604 0.1575 -4.4187 0
M  V30 4 Pb 5.6180 0.3899 -2.9638 0
M  V30 5 Pb 4.3132 -0.1243 -3.0151 0
M  V30 6 Pd 1.1005 -4.8202 -0.9234 0
M  V30 7 Pb 0.3707 -5.4907 -1.0498 0
M  V30 8 Pb 1.7164 -4.1210 -0.5538 0
M  V30 9 Pb 1.4623 -5.4381 -0.2389 0
M  V30 10 Pb 0.7702 -4.2292 -1.6608 0
M  V30 11 Pd 0.6863 -3.8090 5.6215 0
M  V30 12 Pb -0.0926 -4.3803 5.8779 0
M  V30 13 Pb 0.2702 -2.9699 5.9674 0
M  V30 14 Pb 1.1195 -4.6333 5.2840 0
M  V30 15 Pb 1.3718 -3.2843 5.1099 0
M  V30 16 Pd -6.3130 1.3596 0.8723 0
M  V30 17 Pb -6.1289 0.5494 0.3184 0
M  V30 18 Pb -6.3848 0.7474 1.6603 0
M  V30 19 Pb -6.0755 1.9430 0.0995 0
M  V30 20 Pb -6.4141 2.1656 1.4497 0
M  V30 21 Pd -2.8469 3.0033 4.3051 0
M  V30 22 Pb -2.3882 2.3578 4.9142 0
M  V30 23 Pb -3.7083 3.4028 3.9920 0
M  V30 24 Pb -2.8745 2.3027 3.5866 0
M  V30 25 Pb -1.8483 2.9549 4.2667 0
M  V30 26 Pd -0.4937 0.5544 -2.6461 0
M  V30 27 Pb -1.1270 1.3193 -2.7441 0
M  V30 28 Pb -0.9900 0.3167 -1.8076 0
M  V30 29 Pb 0.3320 0.1417 -2.2606 0
M  V30 30 Pb -0.3019 -0.4019 -2.8752 0
M  V30 31 Pd 2.3384 4.1435 -6.2780 0
M  V30 32 Pb 2.2110 3.1411 -6.3401 0
M  V30 33 Pb 2.6459 5.0532 -6.0140 0
M  V30 34 Pb 3.0881 4.0721 -6.9309 0
M  V30 35 Pb 1.6495 4.2374 -5.5556 0
M  V30 36 Pd -3.0729 -5.0088 2.2169 0
M  V30 37 Pb -2.5969 -5.6613 1.6126 0
M  V30 38 Pb -3.6173 -4.3530 2.7443 0
M  V30 39 Pb -2.7480 -5.4038 3.0866 0
M  V30 40 Pb -3.4435 -4.5746 1.3974 0
M  V30 41 Pd 3.4081 5.0614 0.3968 0
M  V30 42 Pb 3.0592 4.5506 1.1827 0
M  V30 43 Pb 4.3215 4.6805 0.5394 0
M  V30 44 Pb 3.7138 5.5945 -0.3930 0
M  V30 45 Pb 2.4826 5.2315 0.0630 0
M  V30 46 Ag -2.8643 1.7650 3.0582 0
M  V30 47 Fe -2.1295 0.9625 0.9425 0
M  V30 48 Ag -1.3812 0.1845 -1.1777 0
M  V30 49 Ag -6.3257 0.2407 2.2112 0
M  V30 50 Fe -5.2509 -1.8071 2.7608 0
M  V30 51 Ag -4.0700 -3.8473 3.0690 0
M  V30 52 Ag 2.9402 5.6269 -5.6386 0
M  V30 53 Fe 3.4804 6.0230 -3.3624 0
M  V30 54 Ag 3.8400 5.9928 -1.0166 0
M  V30 55 Ag -5.7633 2.3267 -0.4596 0
M  V30 56 Fe -3.7723 2.2666 -1.7448 0
M  V30 57 Ag -1.6815 1.8199 -2.7691 0
M  V30 58 Ag 1.7042 -5.8581 0.3193 0
M  V30 59 Fe 1.7245 -5.8238 2.6762 0
M  V30 60 Ag 1.4239 -5.2055 4.9307 0
M  V30 61 Ag 2.0969 -3.6550 -0.0995 0
M  V30 62 Fe 2.1315 -3.1471 2.2268 0
M  V30 63 Ag 1.8118 -2.9752 4.5804 0
M  V30 64 Ag 6.0090 0.6985 -4.9838 0
M  V30 65 Fe 5.3200 2.3382 -6.5269 0
M  V30 66 Ag 3.7279 3.9066 -7.2667 0
M  V30 67 Ag -1.1006 2.9246 4.2107 0
M  V30 68 Fe 0.8594 3.5349 3.0161 0
M  V30 69 Ag 2.7760 4.1824 1.7717 0
M  V30 70 Ag 1.2134 4.3837 -4.9596 0
M  V30 71 Fe 1.3161 4.8500 -2.6311 0
M  V30 72 Ag 1.8589 5.2486 -0.3519 0
M  V30 73 Ag 5.9984 0.6887 -2.3886 0
M  V30 74 Fe 5.7089 2.4428 -0.8115 0
M  V30 75 Ag 4.9431 4.2611 0.5130 0
M  V30 76 Ag -0.0068 -2.3228 6.2222 0
M  V30 77 Fe -1.0452 -0.2303 5.8021 0
M  V30 78 Ag -2.0831 1.8635 5.3873 0
M  V30 79 Ag -5.9347 -0.0806 -0.0359 0
M  V30 80 Fe -4.8656 -2.1777 0.2646 0
M  V30 81 Ag -3.7609 -4.1997 0.8325 0
M  V30 82 Ba -0.1747 -6.0022 -0.9726 0
M  V30 83 Ga -1.2583 -6.0760 0.0390 0
M  V30 84 Ba -2.3248 -6.1186 1.0704 0
M  V30 85 Ba 0.5483 -3.8284 -2.2559 0
M  V30 86 Ga 0.1827 -2.4444 -2.6185 0
M  V30 87 Ba -0.2026 -1.1079 -3.1141 0
M  V30 88 Ba 3.7039 0.2062 -4.9429 0
M  V30 89 Ga 2.9545 1.2986 -5.6378 0
M  V30 90 Ba 2.1945 2.3771 -6.3429 0
M  V30 91 Ba 3.8304 -0.3603 -2.4922 0
M  V30 92 Ga 2.3813 -0.2519 -2.2397 0
M  V30 93 Ba 0.9382 -0.1699 -1.9470 0
M  V30 94 Ba -0.6638 -4.8676 5.9180 0
M  V30 95 Ga -1.6342 -5.2660 4.8682 0
M  V30 96 Ba -2.5824 -5.6403 3.7893 0
M  V30 97 Ba -6.4230 2.7709 1.8866 0
M  V30 98 Ga -5.4177 3.2632 2.8429 0
M  V30 99 Ba -4.3671 3.6925 3.7810 0
M  V30 END ATOM
M  V30 BEGIN BOND
M  V30 1 1 1 2
M  V30 2 1 1 3
M  V30 3 1 1 4
M  V30 4 1 1 5
M  V30 5 1 6 7
M  V30 6 1 6 8
M  V30 7 1 6 9
M  V30 8 1 6 10
M  V30 9 1 11 12
M  V30 10 1 11 13
M  V30 11 1 11 14
M  V30 12 1 11 15
M  V30 13 1 16 17
M  V30 14 1 16 18
M  V30 15 1 16 19
M  V30 16 1 16 20
M  V30 17 1 21 22
M  V30 18 1 21 23
M  V30 19 1 21 24
M  V30 20 1 21 25
M  V30 21 1 26 27
M  V30 22 1 26 28
M  V30 23 1 26 29
M  V30 24 1 26 30
M  V30 25 1 31 32
M  V30 26 1 31 33
M  V30 27 1 31 34
M  V30 28 1 31 35
M  V30 29 1 36 37
M  V30 30 1 36 38
M  V30 31 1 36 39
M  V30 32 1 36 40
M  V30 33 1 41 42
M  V30 34 1 41 43
M  V30 35 1 41 44
M  V30 36 1 41 45
M  V30 37 1 46 47
M  V30 38 1 47 48
M  V30 39 1 49 50
M  V30 40 1 50 51
M  V30 41 1 52 53
M  V30 42 1 53 54
M  V30 43 1 55 56
M  V30 44 1 56 57
M  V30 45 1 58 59
M  V30 46 1 59 60
M  V30 47 1 61 62
M  V30 48 1 62 63
M  V30 49 1 64 65
M  V30 50 1 65 66
M  V30 51 1 67 68
M  V30 52 1 68 69
M  V30 53 1 70 71
M  V30 54 1 71 72
M  V30 55 1 73 74
M  V30 56 1 74 75
M  V30 57 1 76 77
M  V30 58 1 77 78
M  V30 59 1 79 80
M  V30 60 1 80 81
M  V30 61 1 82 83
M  V30 62 1 83 84
M  V30 63 1 85 86
M  V30 64 1 86 87
M  V30 65 1 88 89
M  V30 66 1 89 90
M  V30 67 1 91 92
M  V30 68 1 92 93
M  V30 69 1 94 95
M  V30 70 1 95 96
M  V30 71 1 97 98
M  V30 72 1 98 99
M  V30 73 1 2 64
M  V30 74 1 3 88
M  V30 75 1 4 73
M  V30 76 1 5 91
M  V30 77 1 7 82
M  V30 78 1 8 61
M  V30 79 1 9 58
M  V30 80 1 10 85
M  V30 81 1 12 94
M  V30 82 1 13 76
M  V30 83 1 14 60
M  V30 84 1 15 63
M  V30 85 1 17 79
M  V30 86 1 18 49
M  V30 87 1 19 55
M  V30 88 1 20 97
M  V30 89 1 22 78
M  V30 90 1 23 99
M  V30 91 1 24 46
M  V30 92 1 25 67
M  V30 93 1 27 57
M  V30 94 1 28 48
M  V30 95 1 29 93
M  V30 96 1 30 87
M  V30 97 1 32 90
M  V30 98 1 33 52
M  V30 99 1 34 66
M  V30 100 1 35 70
M  V30 101 1 37 84
M  V30 102 1 38 51
M  V30 103 1 39 96
M  V30 104 1 40 81
M  V30 105 1 42 69
M  V30 106 1 43 75
M  V30 107 1 44 54
M  V30 108 1 45 72
M  V30 END BOND
M  V30 END CTAB
M  END

$$$$
