
     RDKit          3D

  0  0  0  0  0  0  0  0  0  0999 V3000
M  V30 BEGIN CTAB
M  V30 COUNTS 99 108 0 0 0
M  V30 BEGIN ATOM
M  V30 1 Pd 2.0116 0.9799 -3.9682 0
M  V30 2 Pb 1.4451 1.7974 -3.8419 0
M  V30 3 Pb 2.7638 1.4789 -3.5323 0
M  V30 4 Pb 1.2711 0.5118 -4.4510 0
M  V30 5 Pb 2.5631 0.1550 -4.1103 0
M  V30 6 Pd 6.4895 -0.6023 3.1329 0
M  V30 7 Pb 5.5453 -0.3725 2.8976 0
M  V30 8 Pb 7.4326 -0.8251 3.3686 0
M  V30 9 Pb 6.3003 -1.5716 2.9742 0
M  V30 10 Pb 6.7357 0.3812 3.1455 0
M  V30 11 Pd -5.5505 3.4464 3.3573 0
M  V30 12 Pb -6.1873 3.7994 2.6716 0
M  V30 13 Pb -4.8914 3.0393 3.9868 0
M  V30 14 Pb -6.1735 2.7093 3.6187 0
M  V30 15 Pb -4.8944 4.1465 3.0743 0
M  V30 16 Pd -6.2292 -3.7389 2.0413 0
M  V30 17 Pb -6.6360 -3.1133 2.7055 0
M  V30 18 Pb -5.7996 -4.2626 1.3036 0
M  V30 19 Pb -5.5508 -4.0553 2.7060 0
M  V30 20 Pb -6.8760 -3.4078 1.3587 0
M  V30 21 Pd -1.0274 -2.4304 3.3208 0
M  V30 22 Pb -0.3205 -1.7818 3.0401 0
M  V30 23 Pb -1.3819 -1.7421 3.9523 0
M  V30 24 Pb -1.7269 -3.0858 3.6136 0
M  V30 25 Pb -0.6587 -3.0766 2.6533 0
M  V30 26 Pd -5.2221 -1.7137 -4.6570 0
M  V30 27 Pb -4.9906 -2.5940 -4.2387 0
M  V30 28 Pb -5.4311 -0.7815 -4.9463 0
M  V30 29 Pb -4.3290 -1.6516 -5.0986 0
M  V30 30 Pb -6.0789 -1.7541 -4.1501 0
M  V30 31 Pd -4.3485 4.8389 -1.4413 0
M  V30 32 Pb -3.4430 4.8282 -1.8699 0
M  V30 33 Pb -4.7323 4.4501 -2.2790 0
M  V30 34 Pb -3.9646 5.1992 -0.5907 0
M  V30 35 Pb -5.2490 4.8330 -1.0024 0
M  V30 36 Pd 4.8820 -3.1840 -1.3454 0
M  V30 37 Pb 4.0036 -3.5746 -1.0665 0
M  V30 38 Pb 5.7527 -2.7940 -1.6496 0
M  V30 39 Pb 5.2317 -3.4246 -0.4349 0
M  V30 40 Pb 4.5267 -2.9301 -2.2459 0
M  V30 41 Pd 8.9392 2.4947 -0.4099 0
M  V30 42 Pb 9.7795 2.1647 0.0141 0
M  V30 43 Pb 8.0741 2.7840 -0.8212 0
M  V30 44 Pb 9.1228 1.9306 -1.2080 0
M  V30 45 Pb 8.6132 2.7987 0.4937 0
M  V30 46 Ag 4.8366 -0.2005 2.7236 0
M  V30 47 Fe 2.5248 -0.7408 2.7717 0
M  V30 48 Ag 0.2188 -1.3042 2.8333 0
M  V30 49 Ag 1.0444 2.4269 -3.7444 0
M  V30 50 Fe -0.8721 3.5986 -2.9659 0
M  V30 51 Ag -2.7697 4.8116 -2.2040 0
M  V30 52 Ag -0.3456 -3.5058 2.1244 0
M  V30 53 Fe 1.4832 -3.7429 0.6273 0
M  V30 54 Ag 3.3576 -3.8726 -0.8262 0
M  V30 55 Ag -5.5072 -4.5581 0.6772 0
M  V30 56 Fe -5.1085 -4.0356 -1.6077 0
M  V30 57 Ag -4.8557 -3.2044 -3.8209 0
M  V30 58 Ag 8.1715 -0.8705 3.4245 0
M  V30 59 Fe 9.7854 0.2803 2.1551 0
M  V30 60 Ag 10.2764 1.8097 0.4350 0
M  V30 61 Ag -7.2976 -3.1587 0.7952 0
M  V30 62 Fe -7.1691 -2.4517 -1.4629 0
M  V30 63 Ag -6.6611 -1.8143 -3.6880 0
M  V30 64 Ag -6.5705 2.1080 3.8271 0
M  V30 65 Fe -6.8405 -0.2359 3.5589 0
M  V30 66 Ag -6.9323 -2.5689 3.1263 0
M  V30 67 Ag 0.7455 0.1465 -4.8426 0
M  V30 68 Fe -1.4482 -0.7169 -5.1250 0
M  V30 69 Ag -3.6459 -1.5744 -5.3942 0
M  V30 70 Ag 6.3630 -2.4655 -1.9407 0
M  V30 71 Fe 7.8442 -0.6105 -1.9595 0
M  V30 72 Ag 9.1354 1.3621 -1.6892 0
M  V30 73 Ag 3.2927 1.9206 -3.2301 0
M  V30 74 Fe 5.3684 2.3988 -2.1755 0
M  V30 75 Ag 7.4169 2.9858 -1.1227 0
M  V30 76 Ag -5.5626 -0.0549 -5.0677 0
M  V30 77 Fe -5.3287 2.0898 -4.0775 0
M  V30 78 Ag -4.9958 4.1251 -2.9015 0
M  V30 79 Ag -4.4175 2.6558 4.4205 0
M  V30 80 Fe -2.9982 0.7553 4.4999 0
M  V30 81 Ag -1.6330 -1.1826 4.3826 0
M  V30 82 Ba -5.0344 -4.2921 3.1974 0
M  V30 83 Ga -3.6385 -3.9261 3.5141 0
M  V30 84 Ba -2.2423 -3.5800 3.8507 0
M  V30 85 Ba -4.4072 4.6588 2.8229 0
M  V30 86 Ga -4.0313 5.0788 1.4593 0
M  V30 87 Ba -3.7056 5.4475 0.0682 0
M  V30 88 Ba 6.9416 1.1169 3.1231 0
M  V30 89 Ga 7.6333 2.0215 2.1584 0
M  V30 90 Ba 8.3257 2.9182 1.1869 0
M  V30 91 Ba -6.6215 4.0587 2.1172 0
M  V30 92 Ga -6.3011 4.4514 0.7303 0
M  V30 93 Ba -5.9092 4.8271 -0.6430 0
M  V30 94 Ba 6.1968 -2.2917 2.7885 0
M  V30 95 Ga 5.8160 -2.9599 1.5250 0
M  V30 96 Ba 5.4375 -3.6297 0.2617 0
M  V30 97 Ba 2.9203 -0.4884 -4.2675 0
M  V30 98 Ga 3.6107 -1.5890 -3.5643 0
M  V30 99 Ba 4.3139 -2.7265 -2.9365 0
M  V30 END ATOM
M  V30 BEGIN BOND
M  V30 1 1 1 2
M  V30 2 1 1 3
M  V30 3 1 1 4
M  V30 4 1 1 5
M  V30 5 1 6 7
M  V30 6 1 6 8
M  V30 7 1 6 9
M  V30 8 1 6 10
M  V30 9 1 11 12
M  V30 10 1 11 13
M  V30 11 1 11 14
M  V30 12 1 11 15
M  V30 13 1 16 17
M  V30 14 1 16 18
M  V30 15 1 16 19
M  V30 16 1 16 20
M  V30 17 1 21 22
M  V30 18 1 21 23
M  V30 19 1 21 24
M  V30 20 1 21 25
M  V30 21 1 26 27
M  V30 22 1 26 28
M  V30 23 1 26 29
M  V30 24 1 26 30
M  V30 25 1 31 32
M  V30 26 1 31 33
M  V30 27 1 31 34
M  V30 28 1 31 35
M  V30 29 1 36 37
M  V30 30 1 36 38
M  V30 31 1 36 39
M  V30 32 1 36 40
M  V30 33 1 41 42
M  V30 34 1 41 43
M  V30 35 1 41 44
M  V30 36 1 41 45
M  V30 37 1 46 47
M  V30 38 1 47 48
M  V30 39 1 49 50
M  V30 40 1 50 51
M  V30 41 1 52 53
M  V30 42 1 53 54
M  V30 43 1 55 56
M  V30 44 1 56 57
M  V30 45 1 58 59
M  V30 46 1 59 60
M  V30 47 1 61 62
M  V30 48 1 62 63
M  V30 49 1 64 65
M  V30 50 1 65 66
M  V30 51 1 67 68
M  V30 52 1 68 69
M  V30 53 1 70 71
M  V30 54 1 71 72
M  V30 55 1 73 74
M  V30 56 1 74 75
M  V30 57 1 76 77
M  V30 58 1 77 78
M  V30 59 1 79 80
M  V30 60 1 80 81
M  V30 61 1 82 83
M  V30 62 1 83 84
M  V30 63 1 85 86
M  V30 64 1 86 87
M  V30 65 1 88 89
M  V30 66 1 89 90
M  V30 67 1 91 92
M  V30 68 1 92 93
M  V30 69 1 94 95
M  V30 70 1 95 96
M  V30 71 1 97 98
M  V30 72 1 98 99
M  V30 73 1 2 49
M  V30 74 1 3 73
M  V30 75 1 4 67
M  V30 76 1 5 97
M  V30 77 1 7 46
M  V30 78 1 8 58
M  V30 79 1 9 94
M  V30 80 1 10 88
M  V30 81 1 12 91
M  V30 82 1 13 79
M  V30 83 1 14 64
M  V30 84 1 15 85
M  V30 85 1 17 66
M  V30 86 1 18 55
M  V30 87 1 19 82
M  V30 88 1 20 61
M  V30 89 1 22 48
M  V30 90 1 23 81
M  V30 91 1 24 84
M  V30 92 1 25 52
M  V30 93 1 27 57
M  V30 94 1 28 76
M  V30 95 1 29 69
M  V30 96 1 30 63
M  V30 97 1 32 51
M  V30 98 1 33 78
M  V30 99 1 34 87
M  V30 100 1 35 93
M  V30 101 1 37 54
M  V30 102 1 38 70
M  V30 103 1 39 96
M  V30 104 1 40 99
M  V30 105 1 42 60
M  V30 106 1 43 75
M  V30 107 1 44 72
M  V30 108 1 45 90
M  V30 END BOND
M  V30 END CTAB
M  END

$$$$
