
     RDKit          3D

  0  0  0  0  0  0  0  0  0  0999 V3000
M  V30 BEGIN CTAB
M  V30 COUNTS 99 108 0 0 0
M  V30 BEGIN ATOM
M  V30 1 Pd -1.8304 3.4898 -4.7089 0
M  V30 2 Pb -0.8939 3.5958 -4.3717 0
M  V30 3 Pb -1.7744 4.4331 -5.0207 0
M  V30 4 Pb -2.8069 3.4786 -4.9968 0
M  V30 5 Pb -1.8821 2.5079 -4.4993 0
M  V30 6 Pd -6.6734 6.1101 -3.5571 0
M  V30 7 Pb -6.6763 6.7463 -2.7869 0
M  V30 8 Pb -6.4092 5.4070 -4.2362 0
M  V30 9 Pb -6.3061 6.8207 -4.1495 0
M  V30 10 Pb -6.9444 5.3999 -2.9125 0
M  V30 11 Pd 4.4610 -3.8189 -1.8204 0
M  V30 12 Pb 5.1011 -3.5669 -1.0898 0
M  V30 13 Pb 3.7678 -4.0048 -2.5210 0
M  V30 14 Pb 4.3661 -4.7246 -1.4143 0
M  V30 15 Pb 4.5477 -2.9019 -2.1886 0
M  V30 16 Pd 1.7156 -6.7239 4.3904 0
M  V30 17 Pb 0.9265 -7.1892 3.9976 0
M  V30 18 Pb 2.4742 -6.1401 4.6856 0
M  V30 19 Pb 1.1187 -6.3914 5.1244 0
M  V30 20 Pb 2.2603 -7.0241 3.6107 0
M  V30 21 Pd 2.1403 3.1976 -0.3006 0
M  V30 22 Pb 2.5967 2.8093 0.5063 0
M  V30 23 Pb 1.6630 3.8708 0.2750 0
M  V30 24 Pb 2.6626 2.5827 -0.8801 0
M  V30 25 Pb 1.7907 3.5806 -1.1578 0
M  V30 26 Pd -2.8473 4.5110 1.8256 0
M  V30 27 Pb -3.2786 5.4008 1.6621 0
M  V30 28 Pb -2.4600 3.5990 1.9110 0
M  V30 29 Pb -3.7414 4.1083 1.6444 0
M  V30 30 Pb -1.9301 4.9034 1.9072 0
M  V30 31 Pd 3.8231 -1.5316 3.0579 0
M  V30 32 Pb 3.8401 -0.5862 2.7096 0
M  V30 33 Pb 3.0044 -1.2741 3.5670 0
M  V30 34 Pb 4.6167 -1.8015 2.5048 0
M  V30 35 Pb 3.8853 -2.4084 3.5542 0
M  V30 36 Pd -0.0894 -1.6216 -2.0859 0
M  V30 37 Pb 0.4225 -2.1495 -1.4164 0
M  V30 38 Pb 0.2916 -2.2126 -2.8000 0
M  V30 39 Pb -0.6624 -1.1200 -2.7396 0
M  V30 40 Pb -0.4252 -1.0807 -1.3187 0
M  V30 41 Pd -0.9755 -3.6605 3.1645 0
M  V30 42 Pb -1.3128 -3.8869 4.0738 0
M  V30 43 Pb -1.2823 -4.5593 2.8527 0
M  V30 44 Pb -0.6336 -2.7972 3.5299 0
M  V30 45 Pb -0.4205 -3.5474 2.3394 0
M  V30 46 Ag 4.3026 -5.3715 -1.0460 0
M  V30 47 Fe 3.5051 -6.3928 0.9401 0
M  V30 48 Ag 2.6316 -7.2073 2.9887 0
M  V30 49 Ag -7.0416 4.9117 -2.3569 0
M  V30 50 Fe -5.8957 4.2170 -0.4028 0
M  V30 51 Ag -4.4034 3.8617 1.4030 0
M  V30 52 Ag -1.8570 5.1300 -5.2619 0
M  V30 53 Fe -3.6643 6.6379 -5.1936 0
M  V30 54 Ag -5.8497 7.2358 -4.5572 0
M  V30 55 Ag -6.5170 7.1196 -2.1564 0
M  V30 56 Fe -5.1511 6.7616 -0.2449 0
M  V30 57 Ag -3.6889 6.0007 1.4675 0
M  V30 58 Ag -2.1958 2.9028 1.9173 0
M  V30 59 Fe -1.4063 1.0908 0.6081 0
M  V30 60 Ag -0.6179 -0.7325 -0.6859 0
M  V30 61 Ag 4.5813 -2.1971 -2.4169 0
M  V30 62 Fe 3.8559 0.0028 -1.9349 0
M  V30 63 Ag 3.0587 2.1484 -1.3356 0
M  V30 64 Ba 0.7725 -2.5523 -0.8972 0
M  V30 65 Ga 0.3952 -3.0211 0.4478 0
M  V30 66 Ba 0.1011 -3.5316 1.7979 0
M  V30 67 Ba 2.3696 -1.0608 3.9002 0
M  V30 68 Ga 1.0000 -1.6004 3.8881 0
M  V30 69 Ba -0.3527 -2.1797 3.8452 0
M  V30 70 Ba 0.6030 -6.1258 5.6039 0
M  V30 71 Ga -0.4547 -5.1395 5.3170 0
M  V30 72 Ba -1.3918 -4.1425 4.7703 0
M  V30 73 Ba -3.5393 3.4861 -5.2283 0
M  V30 74 Ga -4.8253 4.1957 -4.9423 0
M  V30 75 Ba -6.1421 4.8663 -4.7057 0
M  V30 76 Ba 1.3601 4.3975 0.7252 0
M  V30 77 Ga 0.0544 4.7654 1.3173 0
M  V30 78 Ba -1.2292 5.1728 1.9316 0
M  V30 79 Ba -1.9869 1.7626 -4.4382 0
M  V30 80 Ga -1.4942 0.5319 -3.7800 0
M  V30 81 Ba -1.1394 -0.7923 -3.2218 0
M  V30 82 Ba 5.5639 -3.3434 -0.5387 0
M  V30 83 Ga 5.3812 -2.6887 0.7767 0
M  V30 84 Ba 5.2043 -2.0339 2.0928 0
M  V30 85 Ba 3.0123 2.5539 1.0826 0
M  V30 86 Ga 3.3858 1.2978 1.7768 0
M  V30 87 Ba 3.8801 0.1613 2.5906 0
M  V30 88 Ba -0.2097 3.8052 -4.1414 0
M  V30 89 Ga 0.6681 3.7670 -2.9530 0
M  V30 90 Ba 1.6596 3.8219 -1.8586 0
M  V30 91 Ba 0.3045 -7.4049 3.6467 0
M  V30 92 Ga -0.6682 -6.4413 3.1133 0
M  V30 93 Ba -1.4542 -5.2713 2.6971 0
M  V30 94 Ba 3.0441 -5.6788 4.8544 0
M  V30 95 Ga 3.4852 -4.3402 4.3923 0
M  V30 96 Ba 4.0121 -3.0114 3.9981 0
M  V30 97 Ba 3.2295 -4.0705 -3.0440 0
M  V30 98 Ga 1.9163 -3.4056 -3.1967 0
M  V30 99 Ba 0.6187 -2.6984 -3.2728 0
M  V30 END ATOM
M  V30 BEGIN BOND
M  V30 1 1 1 2
M  V30 2 1 1 3
M  V30 3 1 1 4
M  V30 4 1 1 5
M  V30 5 1 6 7
M  V30 6 1 6 8
M  V30 7 1 6 9
M  V30 8 1 6 10
M  V30 9 1 11 12
M  V30 10 1 11 13
M  V30 11 1 11 14
M  V30 12 1 11 15
M  V30 13 1 16 17
M  V30 14 1 16 18
M  V30 15 1 16 19
M  V30 16 1 16 20
M  V30 17 1 21 22
M  V30 18 1 21 23
M  V30 19 1 21 24
M  V30 20 1 21 25
M  V30 21 1 26 27
M  V30 22 1 26 28
M  V30 23 1 26 29
M  V30 24 1 26 30
M  V30 25 1 31 32
M  V30 26 1 31 33
M  V30 27 1 31 34
M  V30 28 1 31 35
M  V30 29 1 36 37
M  V30 30 1 36 38
M  V30 31 1 36 39
M  V30 32 1 36 40
M  V30 33 1 41 42
M  V30 34 1 41 43
M  V30 35 1 41 44
M  V30 36 1 41 45
M  V30 37 1 46 47
M  V30 38 1 47 48
M  V30 39 1 49 50
M  V30 40 1 50 51
M  V30 41 1 52 53
M  V30 42 1 53 54
M  V30 43 1 55 56
M  V30 44 1 56 57
M  V30 45 1 58 59
M  V30 46 1 59 60
M  V30 47 1 61 62
M  V30 48 1 62 63
M  V30 49 1 64 65
M  V30 50 1 65 66
M  V30 51 1 67 68
M  V30 52 1 68 69
M  V30 53 1 70 71
M  V30 54 1 71 72
M  V30 55 1 73 74
M  V30 56 1 74 75
M  V30 57 1 76 77
M  V30 58 1 77 78
M  V30 59 1 79 80
M  V30 60 1 80 81
M  V30 61 1 82 83
M  V30 62 1 83 84
M  V30 63 1 85 86
M  V30 64 1 86 87
M  V30 65 1 88 89
M  V30 66 1 89 90
M  V30 67 1 91 92
M  V30 68 1 92 93
M  V30 69 1 94 95
M  V30 70 1 95 96
M  V30 71 1 97 98
M  V30 72 1 98 99
M  V30 73 1 2 88
M  V30 74 1 3 52
M  V30 75 1 4 73
M  V30 76 1 5 79
M  V30 77 1 7 55
M  V30 78 1 8 75
M  V30 79 1 9 54
M  V30 80 1 10 49
M  V30 81 1 12 82
M  V30 82 1 13 97
M  V30 83 1 14 46
M  V30 84 1 15 61
M  V30 85 1 17 91
M  V30 86 1 18 94
M  V30 87 1 19 70
M  V30 88 1 20 48
M  V30 89 1 22 85
M  V30 90 1 23 76
M  V30 91 1 24 63
M  V30 92 1 25 90
M  V30 93 1 27 57
M  V30 94 1 28 58
M  V30 95 1 29 51
M  V30 96 1 30 78
M  V30 97 1 32 87
M  V30 98 1 33 67
M  V30 99 1 34 84
M  V30 100 1 35 96
M  V30 101 1 37 64
M  V30 102 1 38 99
M  V30 103 1 39 81
M  V30 104 1 40 60
M  V30 105 1 42 72
M  V30 106 1 43 93
M  V30 107 1 44 69
M  V30 108 1 45 66
M  V30 END BOND
M  V30 END CTAB
M  END

$$$$
