
     RDKit          3D

  0  0  0  0  0  0  0  0  0  0999 V3000
M  V30 BEGIN CTAB
M  V30 COUNTS 99 108 0 0 0
M  V30 BEGIN ATOM
M  V30 1 Pd -2.7309 -1.7769 -2.5265 0
M  V30 2 Pb -3.5460 -1.2217 -2.6676 0
M  V30 3 Pb -2.8228 -1.5150 -1.5649 0
M  V30 4 Pb -2.6649 -1.9926 -3.5028 0
M  V30 5 Pb -1.8534 -2.2275 -2.3530 0
M  V30 6 Pd -2.2522 -3.4978 6.2620 0
M  V30 7 Pb -1.6040 -2.7501 6.3938 0
M  V30 8 Pb -2.9261 -4.2214 6.1024 0
M  V30 9 Pb -1.4887 -4.1509 6.2480 0
M  V30 10 Pb -3.0053 -2.8372 6.2333 0
M  V30 11 Pd 1.5741 5.4267 0.5972 0
M  V30 12 Pb 1.2650 5.9241 -0.2135 0
M  V30 13 Pb 1.9040 4.9621 1.4253 0
M  V30 14 Pb 2.5130 5.4947 0.2619 0
M  V30 15 Pb 0.6180 5.3697 0.8966 0
M  V30 16 Pd 6.0434 1.8114 -3.8380 0
M  V30 17 Pb 6.1757 2.6874 -3.3812 0
M  V30 18 Pb 5.7671 0.9411 -4.2505 0
M  V30 19 Pb 6.3435 1.3775 -2.9918 0
M  V30 20 Pb 5.6467 2.2580 -4.6354 0
M  V30 21 Pd 3.6151 0.5105 3.3308 0
M  V30 22 Pb 2.9468 0.4182 4.0667 0
M  V30 23 Pb 3.4004 1.4930 3.2861 0
M  V30 24 Pb 4.3117 0.5638 2.6148 0
M  V30 25 Pb 3.8568 -0.4570 3.4388 0
M  V30 26 Pd -0.1182 0.2739 -6.9385 0
M  V30 27 Pb 0.6607 -0.3393 -6.7929 0
M  V30 28 Pb -0.8427 0.9607 -6.9930 0
M  V30 29 Pb -0.7738 -0.4586 -6.7424 0
M  V30 30 Pb 0.5516 0.9907 -7.1186 0
M  V30 31 Pd -2.8255 5.2050 -2.2705 0
M  V30 32 Pb -3.5724 4.5469 -2.2006 0
M  V30 33 Pb -2.8814 5.0585 -3.2582 0
M  V30 34 Pb -2.7188 5.2648 -1.2747 0
M  V30 35 Pb -2.0448 5.8185 -2.3708 0
M  V30 36 Pd 1.6820 -4.7947 2.7014 0
M  V30 37 Pb 2.4924 -4.3027 3.0237 0
M  V30 38 Pb 0.8804 -5.2644 2.3430 0
M  V30 39 Pb 1.4601 -5.0844 3.6369 0
M  V30 40 Pb 1.8196 -4.4871 1.7615 0
M  V30 41 Pd -5.0756 -3.2324 2.5423 0
M  V30 42 Pb -5.3071 -3.9690 3.1750 0
M  V30 43 Pb -4.6811 -2.4960 1.9898 0
M  V30 44 Pb -4.6974 -3.9205 1.9340 0
M  V30 45 Pb -5.3152 -2.5756 3.2534 0
M  V30 46 Ag -1.1278 -2.1777 6.4683 0
M  V30 47 Fe 0.6646 -0.9078 5.5706 0
M  V30 48 Ag 2.4579 0.3264 4.6259 0
M  V30 49 Ag -4.0832 -0.7039 -2.6752 0
M  V30 50 Fe -4.2892 1.6490 -2.4687 0
M  V30 51 Ag -4.0807 3.9999 -2.2407 0
M  V30 52 Ag 6.5138 1.1187 -2.3114 0
M  V30 53 Fe 5.7053 0.8082 -0.1008 0
M  V30 54 Ag 4.8538 0.5227 2.0971 0
M  V30 55 Ag 5.4486 0.3434 -4.5783 0
M  V30 56 Fe 3.4313 -0.3390 -5.6366 0
M  V30 57 Ag 1.3037 -0.6973 -6.6368 0
M  V30 58 Ag 5.2535 2.5280 -5.2088 0
M  V30 59 Fe 3.2028 2.1513 -6.3356 0
M  V30 60 Ag 1.1013 1.4886 -7.2088 0
M  V30 61 Ag 3.2010 5.5349 -0.0317 0
M  V30 62 Fe 4.7848 4.5257 -1.4815 0
M  V30 63 Ag 6.1749 3.3122 -2.9723 0
M  V30 64 Ag -1.1697 -2.5035 -2.2063 0
M  V30 65 Fe 0.3773 -3.3950 -0.6392 0
M  V30 66 Ag 1.8031 -4.2812 1.0416 0
M  V30 67 Ag 0.2704 -5.5403 2.0144 0
M  V30 68 Fe -2.0414 -5.1704 1.6650 0
M  V30 69 Ag -4.2950 -4.4502 1.6040 0
M  V30 70 Ag -1.3210 1.5381 -6.9706 0
M  V30 71 Fe -2.1960 3.2422 -5.5661 0
M  V30 72 Ag -2.9297 4.8479 -3.9768 0
M  V30 73 Ba 4.0804 -1.1679 3.5474 0
M  V30 74 Ga 3.5601 -2.5419 3.3888 0
M  V30 75 Ba 3.1090 -3.9432 3.2581 0
M  V30 76 Ba -0.1124 5.3503 1.0816 0
M  V30 77 Ga -1.3638 5.3183 0.2912 0
M  V30 78 Ba -2.5939 5.2863 -0.5318 0
M  V30 79 Ba -3.5817 -2.3593 6.1630 0
M  V30 80 Ga -4.5344 -2.1782 5.0520 0
M  V30 81 Ba -5.3921 -2.1369 3.8535 0
M  V30 82 Ba -3.4789 -4.7071 5.9495 0
M  V30 83 Ga -4.4641 -4.6844 4.8517 0
M  V30 84 Ba -5.3597 -4.5062 3.6934 0
M  V30 85 Ba 1.0301 6.3104 -0.8120 0
M  V30 86 Ga -0.1943 6.2981 -1.6318 0
M  V30 87 Ba -1.4360 6.2496 -2.4237 0
M  V30 88 Ba -0.9008 -4.6242 6.2362 0
M  V30 89 Ga 0.1790 -4.9580 5.2787 0
M  V30 90 Ba 1.2648 -5.3027 4.3319 0
M  V30 91 Ba -2.6281 -2.1457 -4.2381 0
M  V30 92 Ga -1.9343 -1.5724 -5.4105 0
M  V30 93 Ba -1.2538 -1.0203 -6.6007 0
M  V30 94 Ba -2.9470 -1.2441 -0.8752 0
M  V30 95 Ga -3.6420 -1.6396 0.3671 0
M  V30 96 Ba -4.3087 -1.9371 1.6514 0
M  V30 97 Ba 2.1777 4.6702 2.0654 0
M  V30 98 Ga 2.6943 3.4023 2.6326 0
M  V30 99 Ba 3.2366 2.2282 3.3559 0
M  V30 END ATOM
M  V30 BEGIN BOND
M  V30 1 1 1 2
M  V30 2 1 1 3
M  V30 3 1 1 4
M  V30 4 1 1 5
M  V30 5 1 6 7
M  V30 6 1 6 8
M  V30 7 1 6 9
M  V30 8 1 6 10
M  V30 9 1 11 12
M  V30 10 1 11 13
M  V30 11 1 11 14
M  V30 12 1 11 15
M  V30 13 1 16 17
M  V30 14 1 16 18
M  V30 15 1 16 19
M  V30 16 1 16 20
M  V30 17 1 21 22
M  V30 18 1 21 23
M  V30 19 1 21 24
M  V30 20 1 21 25
M  V30 21 1 26 27
M  V30 22 1 26 28
M  V30 23 1 26 29
M  V30 24 1 26 30
M  V30 25 1 31 32
M  V30 26 1 31 33
M  V30 27 1 31 34
M  V30 28 1 31 35
M  V30 29 1 36 37
M  V30 30 1 36 38
M  V30 31 1 36 39
M  V30 32 1 36 40
M  V30 33 1 41 42
M  V30 34 1 41 43
M  V30 35 1 41 44
M  V30 36 1 41 45
M  V30 37 1 46 47
M  V30 38 1 47 48
M  V30 39 1 49 50
M  V30 40 1 50 51
M  V30 41 1 52 53
M  V30 42 1 53 54
M  V30 43 1 55 56
M  V30 44 1 56 57
M  V30 45 1 58 59
M  V30 46 1 59 60
M  V30 47 1 61 62
M  V30 48 1 62 63
M  V30 49 1 64 65
M  V30 50 1 65 66
M  V30 51 1 67 68
M  V30 52 1 68 69
M  V30 53 1 70 71
M  V30 54 1 71 72
M  V30 55 1 73 74
M  V30 56 1 74 75
M  V30 57 1 76 77
M  V30 58 1 77 78
M  V30 59 1 79 80
M  V30 60 1 80 81
M  V30 61 1 82 83
M  V30 62 1 83 84
M  V30 63 1 85 86
M  V30 64 1 86 87
M  V30 65 1 88 89
M  V30 66 1 89 90
M  V30 67 1 91 92
M  V30 68 1 92 93
M  V30 69 1 94 95
M  V30 70 1 95 96
M  V30 71 1 97 98
M  V30 72 1 98 99
M  V30 73 1 2 49
M  V30 74 1 3 94
M  V30 75 1 4 91
M  V30 76 1 5 64
M  V30 77 1 7 46
M  V30 78 1 8 82
M  V30 79 1 9 88
M  V30 80 1 10 79
M  V30 81 1 12 85
M  V30 82 1 13 97
M  V30 83 1 14 61
M  V30 84 1 15 76
M  V30 85 1 17 63
M  V30 86 1 18 55
M  V30 87 1 19 52
M  V30 88 1 20 58
M  V30 89 1 22 48
M  V30 90 1 23 99
M  V30 91 1 24 54
M  V30 92 1 25 73
M  V30 93 1 27 57
M  V30 94 1 28 70
M  V30 95 1 29 93
M  V30 96 1 30 60
M  V30 97 1 32 51
M  V30 98 1 33 72
M  V30 99 1 34 78
M  V30 100 1 35 87
M  V30 101 1 37 75
M  V30 102 1 38 67
M  V30 103 1 39 90
M  V30 104 1 40 66
M  V30 105 1 42 84
M  V30 106 1 43 96
M  V30 107 1 44 69
M  V30 108 1 45 81
M  V30 END BOND
M  V30 END CTAB
M  END

$$$$
