
     RDKit          3D

  0  0  0  0  0  0  0  0  0  0999 V3000
M  V30 BEGIN CTAB
M  V30 COUNTS 99 108 0 0 0
M  V30 BEGIN ATOM
M  V30 1 Pd -2.3936 -2.8128 3.0028 0
M  V30 2 Pb -1.4835 -2.4762 2.7752 0
M  V30 3 Pb -2.0105 -3.2854 3.7932 0
M  V30 4 Pb -3.2615 -3.3088 3.1630 0
M  V30 5 Pb -2.7953 -2.3714 2.1947 0
M  V30 6 Pd -4.0007 -7.9361 2.0378 0
M  V30 7 Pb -3.3865 -8.5520 1.5415 0
M  V30 8 Pb -4.4729 -7.1559 2.4744 0
M  V30 9 Pb -3.5544 -8.1315 2.9078 0
M  V30 10 Pb -4.3751 -7.6780 1.1510 0
M  V30 11 Pd 2.1479 3.3941 -3.9587 0
M  V30 12 Pb 3.1064 3.2763 -3.7129 0
M  V30 13 Pb 1.1629 3.5006 -4.0875 0
M  V30 14 Pb 2.1782 4.2504 -3.4411 0
M  V30 15 Pb 2.1566 2.5596 -4.5178 0
M  V30 16 Pd 2.5161 7.0118 2.7803 0
M  V30 17 Pb 1.6068 7.4318 2.7604 0
M  V30 18 Pb 3.3717 6.4945 2.8153 0
M  V30 19 Pb 2.3520 6.7553 3.7274 0
M  V30 20 Pb 2.6112 7.1700 1.7985 0
M  V30 21 Pd 2.2807 -1.5896 -2.8127 0
M  V30 22 Pb 1.8608 -0.7144 -2.5925 0
M  V30 23 Pb 2.6537 -2.4932 -3.0327 0
M  V30 24 Pb 2.3104 -1.2883 -3.7624 0
M  V30 25 Pb 2.2497 -1.7932 -1.8373 0
M  V30 26 Pd -0.2806 -5.9738 -3.5265 0
M  V30 27 Pb -0.2318 -6.8547 -3.0495 0
M  V30 28 Pb -0.3759 -5.0566 -3.9082 0
M  V30 29 Pb -1.2713 -6.0495 -3.4417 0
M  V30 30 Pb 0.7134 -5.8672 -3.5655 0
M  V30 31 Pd 3.2160 2.5028 0.7542 0
M  V30 32 Pb 2.5506 2.2154 0.0694 0
M  V30 33 Pb 2.5819 2.1901 1.4680 0
M  V30 34 Pb 3.8624 2.7193 0.0200 0
M  V30 35 Pb 3.8491 2.9091 1.4121 0
M  V30 36 Pd -2.3043 1.1467 -1.5420 0
M  V30 37 Pb -2.6584 1.8210 -0.8911 0
M  V30 38 Pb -2.0239 1.8803 -2.1672 0
M  V30 39 Pb -2.6920 0.4041 -0.9856 0
M  V30 40 Pb -1.9730 0.4863 -2.2164 0
M  V30 41 Pd -1.1800 4.2153 3.2745 0
M  V30 42 Pb -0.5812 4.4471 4.0406 0
M  V30 43 Pb -1.4074 5.1855 3.1962 0
M  V30 44 Pb -0.8068 3.2903 3.2882 0
M  V30 45 Pb -1.8253 3.9963 2.5385 0
M  V30 46 Ag 2.2578 4.8966 -3.0664 0
M  V30 47 Fe 2.4457 6.0964 -1.0249 0
M  V30 48 Ag 2.6231 7.2351 1.0521 0
M  V30 49 Ag -4.5429 -7.4662 0.4556 0
M  V30 50 Fe -3.4501 -6.7748 -1.5303 0
M  V30 51 Ag -1.9974 -6.1358 -3.2903 0
M  V30 52 Ag -1.8060 -3.7769 4.3119 0
M  V30 53 Fe -2.2387 -6.0917 4.4197 0
M  V30 54 Ag -3.1752 -8.0686 3.5426 0
M  V30 55 Ag -2.8784 -8.8804 1.0943 0
M  V30 56 Fe -1.5100 -8.3510 -0.7782 0
M  V30 57 Ag -0.3029 -7.4789 -2.6335 0
M  V30 58 Ag -0.4620 -4.3477 -4.1308 0
M  V30 59 Fe -1.0904 -2.1558 -3.4694 0
M  V30 60 Ag -1.7305 0.0130 -2.7458 0
M  V30 61 Ag -0.7787 -2.3339 2.5719 0
M  V30 62 Fe 0.7541 -2.0775 0.7800 0
M  V30 63 Ag 2.1884 -1.8370 -1.0937 0
M  V30 64 Ba -2.9581 2.3300 -0.4260 0
M  V30 65 Ga -2.5996 3.0756 0.7986 0
M  V30 66 Ba -2.3546 3.8755 2.0170 0
M  V30 67 Ba 2.0935 1.8855 1.9569 0
M  V30 68 Ga 0.8295 2.2563 2.6272 0
M  V30 69 Ba -0.4315 2.6428 3.2943 0
M  V30 70 Ba 2.1529 6.4796 4.3893 0
M  V30 71 Ga 1.0259 5.5612 4.5994 0
M  V30 72 Ba -0.1338 4.6587 4.6031 0
M  V30 73 Ba -3.8921 -3.7232 3.2765 0
M  V30 74 Ga -4.3248 -5.1291 3.0245 0
M  V30 75 Ba -4.7794 -6.5298 2.7823 0
M  V30 76 Ba 2.9011 -3.1854 -3.1912 0
M  V30 77 Ga 2.2092 -4.4742 -3.3961 0
M  V30 78 Ba 1.4504 -5.7266 -3.5890 0
M  V30 79 Ba -3.1524 -2.0903 1.5927 0
M  V30 80 Ga -3.0196 -1.0857 0.5130 0
M  V30 81 Ba -3.0685 -0.1459 -0.6302 0
M  V30 82 Ba 3.7905 3.2224 -3.4182 0
M  V30 83 Ga 4.1312 3.0282 -1.9973 0
M  V30 84 Ba 4.3386 2.8309 -0.5511 0
M  V30 85 Ba 1.5275 -0.0718 -2.4145 0
M  V30 86 Ga 1.7921 0.9876 -1.4301 0
M  V30 87 Ba 2.0389 2.0571 -0.4520 0
M  V30 88 Ba 2.1818 1.9458 -4.9559 0
M  V30 89 Ga 2.2473 0.4873 -4.7327 0
M  V30 90 Ba 2.3099 -0.9572 -4.4324 0
M  V30 91 Ba 0.8934 7.6690 2.7689 0
M  V30 92 Ga -0.3397 6.8745 2.9373 0
M  V30 93 Ba -1.4594 5.9292 3.1166 0
M  V30 94 Ba 3.9669 6.0409 2.8759 0
M  V30 95 Ga 4.1925 4.6663 2.3891 0
M  V30 96 Ba 4.3153 3.2973 1.8524 0
M  V30 97 Ba 0.4197 3.5909 -4.1204 0
M  V30 98 Ga -0.7167 2.9876 -3.3937 0
M  V30 99 Ba -1.8765 2.4084 -2.6848 0
M  V30 END ATOM
M  V30 BEGIN BOND
M  V30 1 1 1 2
M  V30 2 1 1 3
M  V30 3 1 1 4
M  V30 4 1 1 5
M  V30 5 1 6 7
M  V30 6 1 6 8
M  V30 7 1 6 9
M  V30 8 1 6 10
M  V30 9 1 11 12
M  V30 10 1 11 13
M  V30 11 1 11 14
M  V30 12 1 11 15
M  V30 13 1 16 17
M  V30 14 1 16 18
M  V30 15 1 16 19
M  V30 16 1 16 20
M  V30 17 1 21 22
M  V30 18 1 21 23
M  V30 19 1 21 24
M  V30 20 1 21 25
M  V30 21 1 26 27
M  V30 22 1 26 28
M  V30 23 1 26 29
M  V30 24 1 26 30
M  V30 25 1 31 32
M  V30 26 1 31 33
M  V30 27 1 31 34
M  V30 28 1 31 35
M  V30 29 1 36 37
M  V30 30 1 36 38
M  V30 31 1 36 39
M  V30 32 1 36 40
M  V30 33 1 41 42
M  V30 34 1 41 43
M  V30 35 1 41 44
M  V30 36 1 41 45
M  V30 37 1 46 47
M  V30 38 1 47 48
M  V30 39 1 49 50
M  V30 40 1 50 51
M  V30 41 1 52 53
M  V30 42 1 53 54
M  V30 43 1 55 56
M  V30 44 1 56 57
M  V30 45 1 58 59
M  V30 46 1 59 60
M  V30 47 1 61 62
M  V30 48 1 62 63
M  V30 49 1 64 65
M  V30 50 1 65 66
M  V30 51 1 67 68
M  V30 52 1 68 69
M  V30 53 1 70 71
M  V30 54 1 71 72
M  V30 55 1 73 74
M  V30 56 1 74 75
M  V30 57 1 76 77
M  V30 58 1 77 78
M  V30 59 1 79 80
M  V30 60 1 80 81
M  V30 61 1 82 83
M  V30 62 1 83 84
M  V30 63 1 85 86
M  V30 64 1 86 87
M  V30 65 1 88 89
M  V30 66 1 89 90
M  V30 67 1 91 92
M  V30 68 1 92 93
M  V30 69 1 94 95
M  V30 70 1 95 96
M  V30 71 1 97 98
M  V30 72 1 98 99
M  V30 73 1 2 61
M  V30 74 1 3 52
M  V30 75 1 4 73
M  V30 76 1 5 79
M  V30 77 1 7 55
M  V30 78 1 8 75
M  V30 79 1 9 54
M  V30 80 1 10 49
M  V30 81 1 12 82
M  V30 82 1 13 97
M  V30 83 1 14 46
M  V30 84 1 15 88
M  V30 85 1 17 91
M  V30 86 1 18 94
M  V30 87 1 19 70
M  V30 88 1 20 48
M  V30 89 1 22 85
M  V30 90 1 23 76
M  V30 91 1 24 90
M  V30 92 1 25 63
M  V30 93 1 27 57
M  V30 94 1 28 58
M  V30 95 1 29 51
M  V30 96 1 30 78
M  V30 97 1 32 87
M  V30 98 1 33 67
M  V30 99 1 34 84
M  V30 100 1 35 96
M  V30 101 1 37 64
M  V30 102 1 38 99
M  V30 103 1 39 81
M  V30 104 1 40 60
M  V30 105 1 42 72
M  V30 106 1 43 93
M  V30 107 1 44 69
M  V30 108 1 45 66
M  V30 END BOND
M  V30 END CTAB
M  END

$$$$
