
     RDKit          3D

  0  0  0  0  0  0  0  0  0  0999 V3000
M  V30 BEGIN CTAB
M  V30 COUNTS 99 108 0 0 0
M  V30 BEGIN ATOM
M  V30 1 Pd 2.8750 -2.9908 2.8252 0
M  V30 2 Pb 3.5924 -2.3185 2.6336 0
M  V30 3 Pb 2.9374 -2.7111 3.7854 0
M  V30 4 Pb 2.9444 -3.3780 1.9030 0
M  V30 5 Pb 2.1139 -3.6230 2.9937 0
M  V30 6 Pd -4.1104 1.6723 6.2665 0
M  V30 7 Pb -4.5057 2.0912 5.4526 0
M  V30 8 Pb -3.6891 1.2445 7.0734 0
M  V30 9 Pb -4.6369 0.8357 6.1143 0
M  V30 10 Pb -3.4978 2.4488 6.3941 0
M  V30 11 Pd -0.0229 4.9533 -5.2861 0
M  V30 12 Pb 0.3511 5.1175 -4.3712 0
M  V30 13 Pb -0.9550 5.0935 -4.9520 0
M  V30 14 Pb -0.3753 4.7379 -6.1988 0
M  V30 15 Pb 0.9181 4.7912 -5.5799 0
M  V30 16 Pd -1.2137 0.3244 -7.8231 0
M  V30 17 Pb -1.2562 1.2941 -8.0735 0
M  V30 18 Pb -1.1516 -0.6333 -7.5504 0
M  V30 19 Pb -2.1444 0.3448 -7.4633 0
M  V30 20 Pb -0.2553 0.2520 -8.1033 0
M  V30 21 Pd -5.2526 1.4263 -1.4329 0
M  V30 22 Pb -5.3322 1.8413 -0.5287 0
M  V30 23 Pb -5.1807 2.3318 -1.8475 0
M  V30 24 Pb -5.2237 1.0516 -2.3588 0
M  V30 25 Pb -5.2165 0.5111 -1.0248 0
M  V30 26 Pd 4.0123 -3.5816 -4.9396 0
M  V30 27 Pb 3.0916 -3.8657 -5.1942 0
M  V30 28 Pb 4.9037 -3.2213 -4.6739 0
M  V30 29 Pb 3.9289 -4.0575 -4.0646 0
M  V30 30 Pb 4.0129 -3.0126 -5.7638 0
M  V30 31 Pd 5.7587 2.4897 -1.7392 0
M  V30 32 Pb 5.8288 2.0782 -0.8303 0
M  V30 33 Pb 6.3636 1.7751 -2.0819 0
M  V30 34 Pb 5.6273 2.8410 -2.6655 0
M  V30 35 Pb 5.0642 3.1483 -1.4478 0
M  V30 36 Pd -2.6896 -3.2424 4.3053 0
M  V30 37 Pb -3.0957 -3.0704 3.4034 0
M  V30 38 Pb -2.3097 -3.4670 5.2043 0
M  V30 39 Pb -3.4815 -2.7765 4.7122 0
M  V30 40 Pb -1.9175 -3.7531 3.9153 0
M  V30 41 Pd 0.6525 -0.9683 7.8116 0
M  V30 42 Pb -0.2210 -0.6562 8.2005 0
M  V30 43 Pb 1.5043 -1.2787 7.3955 0
M  V30 44 Pb 0.2819 -1.8943 7.7946 0
M  V30 45 Pb 0.9522 -0.0173 7.7895 0
M  V30 46 Ag -4.7880 2.3965 4.8319 0
M  V30 47 Fe -5.1017 2.2824 2.4832 0
M  V30 48 Ag -5.4196 2.1762 0.1347 0
M  V30 49 Ag 4.1028 -1.7779 2.5221 0
M  V30 50 Fe 5.0064 -0.0302 1.1894 0
M  V30 51 Ag 5.8756 1.7063 -0.1802 0
M  V30 52 Ag -5.1339 -0.1739 -0.7234 0
M  V30 53 Fe -4.2879 -1.5544 1.0197 0
M  V30 54 Ag -3.4516 -2.9592 2.7480 0
M  V30 55 Ag -2.8149 0.3027 -7.1336 0
M  V30 56 Fe -4.0540 0.5612 -5.1254 0
M  V30 57 Ag -5.2230 0.8426 -3.0786 0
M  V30 58 Ag -1.0408 -1.3378 -7.3268 0
M  V30 59 Fe 0.5664 -2.7966 -6.3733 0
M  V30 60 Ag 2.3877 -3.9746 -5.4168 0
M  V30 61 Ag 1.6446 4.6594 -5.7054 0
M  V30 62 Fe 3.6288 3.8961 -4.6495 0
M  V30 63 Ag 5.4439 3.0957 -3.3459 0
M  V30 64 Ag -2.9065 2.8806 6.5242 0
M  V30 65 Fe -0.7200 2.2530 7.1564 0
M  V30 66 Ag 0.9843 0.7235 7.7320 0
M  V30 67 Ag 0.6938 5.1941 -3.7061 0
M  V30 68 Fe 2.5556 4.4891 -2.4074 0
M  V30 69 Ag 4.4907 3.6197 -1.3354 0
M  V30 70 Ag 0.4696 0.1059 -8.2359 0
M  V30 71 Fe 2.2958 -1.1696 -7.4064 0
M  V30 72 Ag 3.9170 -2.5475 -6.3464 0
M  V30 73 Ag 3.0411 -3.7565 1.2593 0
M  V30 74 Fe 3.4336 -4.0242 -1.0696 0
M  V30 75 Ag 3.8195 -4.3661 -3.3900 0
M  V30 76 Ag 5.5305 -2.8778 -4.4563 0
M  V30 77 Fe 6.3108 -0.8943 -3.4185 0
M  V30 78 Ag 6.7271 1.1841 -2.3572 0
M  V30 79 Ag -1.6494 5.1687 -4.6786 0
M  V30 80 Fe -3.4115 4.1629 -3.4458 0
M  V30 81 Ag -5.0459 2.9820 -2.1928 0
M  V30 82 Ba -3.3788 0.9331 7.6881 0
M  V30 83 Ga -2.1151 0.2531 8.0604 0
M  V30 84 Ba -0.8775 -0.4335 8.5014 0
M  V30 85 Ba -0.6391 4.5587 -6.8797 0
M  V30 86 Ga -0.9626 3.2913 -7.5679 0
M  V30 87 Ba -1.2859 2.0236 -8.2554 0
M  V30 88 Ba -4.9847 0.1795 6.0063 0
M  V30 89 Ga -4.5361 -1.1338 5.4954 0
M  V30 90 Ba -4.1059 -2.4547 4.9885 0
M  V30 91 Ba 1.5413 -4.1101 3.0496 0
M  V30 92 Ga 0.0974 -4.0982 3.3768 0
M  V30 93 Ba -1.3480 -4.1908 3.6838 0
M  V30 94 Ba -1.9979 -3.6867 5.8520 0
M  V30 95 Ga -1.0284 -3.1318 6.8150 0
M  V30 96 Ba -0.0595 -2.5591 7.7680 0
M  V30 97 Ba 3.1148 -2.5305 4.4943 0
M  V30 98 Ga 2.5676 -2.0166 5.7642 0
M  V30 99 Ba 2.1421 -1.5137 7.0845 0
M  V30 END ATOM
M  V30 BEGIN BOND
M  V30 1 1 1 2
M  V30 2 1 1 3
M  V30 3 1 1 4
M  V30 4 1 1 5
M  V30 5 1 6 7
M  V30 6 1 6 8
M  V30 7 1 6 9
M  V30 8 1 6 10
M  V30 9 1 11 12
M  V30 10 1 11 13
M  V30 11 1 11 14
M  V30 12 1 11 15
M  V30 13 1 16 17
M  V30 14 1 16 18
M  V30 15 1 16 19
M  V30 16 1 16 20
M  V30 17 1 21 22
M  V30 18 1 21 23
M  V30 19 1 21 24
M  V30 20 1 21 25
M  V30 21 1 26 27
M  V30 22 1 26 28
M  V30 23 1 26 29
M  V30 24 1 26 30
M  V30 25 1 31 32
M  V30 26 1 31 33
M  V30 27 1 31 34
M  V30 28 1 31 35
M  V30 29 1 36 37
M  V30 30 1 36 38
M  V30 31 1 36 39
M  V30 32 1 36 40
M  V30 33 1 41 42
M  V30 34 1 41 43
M  V30 35 1 41 44
M  V30 36 1 41 45
M  V30 37 1 46 47
M  V30 38 1 47 48
M  V30 39 1 49 50
M  V30 40 1 50 51
M  V30 41 1 52 53
M  V30 42 1 53 54
M  V30 43 1 55 56
M  V30 44 1 56 57
M  V30 45 1 58 59
M  V30 46 1 59 60
M  V30 47 1 61 62
M  V30 48 1 62 63
M  V30 49 1 64 65
M  V30 50 1 65 66
M  V30 51 1 67 68
M  V30 52 1 68 69
M  V30 53 1 70 71
M  V30 54 1 71 72
M  V30 55 1 73 74
M  V30 56 1 74 75
M  V30 57 1 76 77
M  V30 58 1 77 78
M  V30 59 1 79 80
M  V30 60 1 80 81
M  V30 61 1 82 83
M  V30 62 1 83 84
M  V30 63 1 85 86
M  V30 64 1 86 87
M  V30 65 1 88 89
M  V30 66 1 89 90
M  V30 67 1 91 92
M  V30 68 1 92 93
M  V30 69 1 94 95
M  V30 70 1 95 96
M  V30 71 1 97 98
M  V30 72 1 98 99
M  V30 73 1 2 49
M  V30 74 1 3 97
M  V30 75 1 4 73
M  V30 76 1 5 91
M  V30 77 1 7 46
M  V30 78 1 8 82
M  V30 79 1 9 88
M  V30 80 1 10 64
M  V30 81 1 12 67
M  V30 82 1 13 79
M  V30 83 1 14 85
M  V30 84 1 15 61
M  V30 85 1 17 87
M  V30 86 1 18 58
M  V30 87 1 19 55
M  V30 88 1 20 70
M  V30 89 1 22 48
M  V30 90 1 23 81
M  V30 91 1 24 57
M  V30 92 1 25 52
M  V30 93 1 27 60
M  V30 94 1 28 76
M  V30 95 1 29 75
M  V30 96 1 30 72
M  V30 97 1 32 51
M  V30 98 1 33 78
M  V30 99 1 34 63
M  V30 100 1 35 69
M  V30 101 1 37 54
M  V30 102 1 38 94
M  V30 103 1 39 90
M  V30 104 1 40 93
M  V30 105 1 42 84
M  V30 106 1 43 99
M  V30 107 1 44 96
M  V30 108 1 45 66
M  V30 END BOND
M  V30 END CTAB
M  END

$$$$
