
     RDKit          3D

  0  0  0  0  0  0  0  0  0  0999 V3000
M  V30 BEGIN CTAB
M  V30 COUNTS 99 108 0 0 0
M  V30 BEGIN ATOM
M  V30 1 Pd -2.3042 -1.2757 3.1200 0
M  V30 2 Pb -2.3464 -2.2512 2.8940 0
M  V30 3 Pb -1.6974 -1.4975 3.8789 0
M  V30 4 Pb -2.9178 -1.0567 2.3566 0
M  V30 5 Pb -2.1270 -0.3148 3.3320 0
M  V30 6 Pd -5.1763 2.9210 0.3888 0
M  V30 7 Pb -4.1856 3.1219 0.4016 0
M  V30 8 Pb -5.3712 3.8980 0.3497 0
M  V30 9 Pb -4.9929 1.9349 0.3977 0
M  V30 10 Pb -6.1176 2.7720 0.0867 0
M  V30 11 Pd -2.1138 3.6666 -3.8182 0
M  V30 12 Pb -1.5443 2.8510 -3.9007 0
M  V30 13 Pb -2.6002 4.5348 -3.7708 0
M  V30 14 Pb -2.5748 3.4409 -4.6718 0
M  V30 15 Pb -1.8573 3.7644 -2.8439 0
M  V30 16 Pd -2.6925 -3.9444 -1.3581 0
M  V30 17 Pb -3.0280 -3.4767 -2.2041 0
M  V30 18 Pb -1.7484 -3.9467 -1.6961 0
M  V30 19 Pb -3.6190 -4.0113 -1.0165 0
M  V30 20 Pb -2.4127 -4.3178 -0.4764 0
M  V30 21 Pd 4.6987 1.3968 -1.8735 0
M  V30 22 Pb 4.1338 2.1519 -1.5487 0
M  V30 23 Pb 5.2573 0.6370 -2.2007 0
M  V30 24 Pb 3.9437 1.1065 -2.4586 0
M  V30 25 Pb 5.4049 1.6674 -1.2170 0
M  V30 26 Pd -6.0987 0.3913 -3.6853 0
M  V30 27 Pb -6.6074 -0.1833 -3.0605 0
M  V30 28 Pb -5.4565 -0.3800 -3.8802 0
M  V30 29 Pb -5.6424 0.9665 -4.3757 0
M  V30 30 Pb -6.7050 1.1157 -3.3538 0
M  V30 31 Pd 4.8946 -2.2819 4.6197 0
M  V30 32 Pb 5.7238 -2.3178 4.0615 0
M  V30 33 Pb 5.1274 -1.3797 4.9850 0
M  V30 34 Pb 4.6136 -3.1547 4.2231 0
M  V30 35 Pb 4.0386 -2.2575 5.1280 0
M  V30 36 Pd 3.8440 2.7743 2.9610 0
M  V30 37 Pb 4.2399 2.3521 3.7795 0
M  V30 38 Pb 4.7350 2.7200 2.5051 0
M  V30 39 Pb 2.9217 2.7990 3.3526 0
M  V30 40 Pb 3.4707 3.1973 2.1386 0
M  V30 41 Pd 5.0723 -3.6561 -0.2948 0
M  V30 42 Pb 4.2725 -3.8214 -0.8761 0
M  V30 43 Pb 4.6654 -4.1746 0.4554 0
M  V30 44 Pb 5.8426 -3.4328 0.3053 0
M  V30 45 Pb 5.5038 -3.1440 -1.0357 0
M  V30 46 Ag -1.2187 -1.6435 4.4327 0
M  V30 47 Fe 1.0491 -1.9597 5.0445 0
M  V30 48 Ag 3.3664 -2.2455 5.4504 0
M  V30 49 Ag -1.0427 -3.9910 -1.9546 0
M  V30 50 Fe 1.3109 -3.9450 -1.6179 0
M  V30 51 Ag 3.6697 -3.9056 -1.3186 0
M  V30 52 Ag -1.0588 2.2868 -3.9764 0
M  V30 53 Fe 1.1239 1.5127 -3.4597 0
M  V30 54 Ag 3.3334 0.9063 -2.8426 0
M  V30 55 Ag -1.8689 0.3622 3.5274 0
M  V30 56 Fe 0.1130 1.6730 3.5904 0
M  V30 57 Ag 2.1986 2.8134 3.5611 0
M  V30 58 Ag -4.3268 -3.9786 -0.8164 0
M  V30 59 Fe -6.0494 -2.5025 -1.4186 0
M  V30 60 Ag -6.9116 -0.6583 -2.5870 0
M  V30 61 Ag -5.4381 4.6038 0.1363 0
M  V30 62 Fe -4.4147 5.5187 -1.7703 0
M  V30 63 Ag -2.9840 5.1452 -3.5973 0
M  V30 64 Ba 6.3126 -2.3841 3.6012 0
M  V30 65 Ga 6.3951 -2.8065 2.1887 0
M  V30 66 Ba 6.3950 -3.2381 0.7766 0
M  V30 67 Ba -3.2711 -3.1335 -2.8525 0
M  V30 68 Ga -4.1451 -2.0250 -3.3663 0
M  V30 69 Ba -4.9727 -0.9626 -4.0320 0
M  V30 70 Ba -6.7670 2.7375 -0.2902 0
M  V30 71 Ga -7.0362 2.1699 -1.6300 0
M  V30 72 Ba -7.1779 1.5581 -2.9699 0
M  V30 73 Ba 5.2542 -0.6931 5.2617 0
M  V30 74 Ga 4.9153 0.6750 4.8185 0
M  V30 75 Ba 4.5770 2.0440 4.3776 0
M  V30 76 Ba 5.6607 0.0562 -2.4450 0
M  V30 77 Ga 5.7604 -1.3522 -2.0265 0
M  V30 78 Ba 5.8357 -2.7541 -1.5818 0
M  V30 79 Ba -3.4495 3.3014 0.3108 0
M  V30 80 Ga -2.5857 3.5474 -0.8838 0
M  V30 81 Ba -1.7371 3.7900 -2.0898 0
M  V30 82 Ba -2.2922 -2.9838 2.7304 0
M  V30 83 Ga -2.2840 -3.7863 1.4916 0
M  V30 84 Ba -2.2878 -4.5450 0.2255 0
M  V30 85 Ba 4.3816 -3.7851 3.8919 0
M  V30 86 Ga 4.3714 -4.2056 2.4801 0
M  V30 87 Ba 4.4001 -4.5479 1.0476 0
M  V30 88 Ba 5.8887 1.8765 -0.6809 0
M  V30 89 Ga 5.6745 2.2773 0.7258 0
M  V30 90 Ba 5.3800 2.6668 2.1210 0
M  V30 91 Ba -3.3833 -0.9424 1.7752 0
M  V30 92 Ga -4.1075 0.1618 1.1089 0
M  V30 93 Ba -4.8711 1.1924 0.3724 0
M  V30 94 Ba 3.7133 2.7082 -1.2802 0
M  V30 95 Ga 3.4328 3.1384 0.0977 0
M  V30 96 Ba 3.2093 3.4971 1.5062 0
M  V30 97 Ba -3.0205 3.2059 -5.2240 0
M  V30 98 Ga -4.1724 2.2844 -5.1089 0
M  V30 99 Ba -5.3149 1.3601 -4.9345 0
M  V30 END ATOM
M  V30 BEGIN BOND
M  V30 1 1 1 2
M  V30 2 1 1 3
M  V30 3 1 1 4
M  V30 4 1 1 5
M  V30 5 1 6 7
M  V30 6 1 6 8
M  V30 7 1 6 9
M  V30 8 1 6 10
M  V30 9 1 11 12
M  V30 10 1 11 13
M  V30 11 1 11 14
M  V30 12 1 11 15
M  V30 13 1 16 17
M  V30 14 1 16 18
M  V30 15 1 16 19
M  V30 16 1 16 20
M  V30 17 1 21 22
M  V30 18 1 21 23
M  V30 19 1 21 24
M  V30 20 1 21 25
M  V30 21 1 26 27
M  V30 22 1 26 28
M  V30 23 1 26 29
M  V30 24 1 26 30
M  V30 25 1 31 32
M  V30 26 1 31 33
M  V30 27 1 31 34
M  V30 28 1 31 35
M  V30 29 1 36 37
M  V30 30 1 36 38
M  V30 31 1 36 39
M  V30 32 1 36 40
M  V30 33 1 41 42
M  V30 34 1 41 43
M  V30 35 1 41 44
M  V30 36 1 41 45
M  V30 37 1 46 47
M  V30 38 1 47 48
M  V30 39 1 49 50
M  V30 40 1 50 51
M  V30 41 1 52 53
M  V30 42 1 53 54
M  V30 43 1 55 56
M  V30 44 1 56 57
M  V30 45 1 58 59
M  V30 46 1 59 60
M  V30 47 1 61 62
M  V30 48 1 62 63
M  V30 49 1 64 65
M  V30 50 1 65 66
M  V30 51 1 67 68
M  V30 52 1 68 69
M  V30 53 1 70 71
M  V30 54 1 71 72
M  V30 55 1 73 74
M  V30 56 1 74 75
M  V30 57 1 76 77
M  V30 58 1 77 78
M  V30 59 1 79 80
M  V30 60 1 80 81
M  V30 61 1 82 83
M  V30 62 1 83 84
M  V30 63 1 85 86
M  V30 64 1 86 87
M  V30 65 1 88 89
M  V30 66 1 89 90
M  V30 67 1 91 92
M  V30 68 1 92 93
M  V30 69 1 94 95
M  V30 70 1 95 96
M  V30 71 1 97 98
M  V30 72 1 98 99
M  V30 73 1 2 82
M  V30 74 1 3 46
M  V30 75 1 4 91
M  V30 76 1 5 55
M  V30 77 1 7 79
M  V30 78 1 8 61
M  V30 79 1 9 93
M  V30 80 1 10 70
M  V30 81 1 12 52
M  V30 82 1 13 63
M  V30 83 1 14 97
M  V30 84 1 15 81
M  V30 85 1 17 67
M  V30 86 1 18 49
M  V30 87 1 19 58
M  V30 88 1 20 84
M  V30 89 1 22 94
M  V30 90 1 23 76
M  V30 91 1 24 54
M  V30 92 1 25 88
M  V30 93 1 27 60
M  V30 94 1 28 69
M  V30 95 1 29 99
M  V30 96 1 30 72
M  V30 97 1 32 64
M  V30 98 1 33 73
M  V30 99 1 34 85
M  V30 100 1 35 48
M  V30 101 1 37 75
M  V30 102 1 38 90
M  V30 103 1 39 57
M  V30 104 1 40 96
M  V30 105 1 42 51
M  V30 106 1 43 87
M  V30 107 1 44 66
M  V30 108 1 45 78
M  V30 END BOND
M  V30 END CTAB
M  END

$$$$
