
     RDKit          3D

  0  0  0  0  0  0  0  0  0  0999 V3000
M  V30 BEGIN CTAB
M  V30 COUNTS 99 108 0 0 0
M  V30 BEGIN ATOM
M  V30 1 Pd -3.8735 1.7858 0.3322 0
M  V30 2 Pb -4.3547 2.5825 0.7082 0
M  V30 3 Pb -3.4019 0.9799 -0.0237 0
M  V30 4 Pb -4.6271 1.1619 0.5465 0
M  V30 5 Pb -3.1261 2.3936 0.0539 0
M  V30 6 Pd 3.0990 -1.2829 -6.5043 0
M  V30 7 Pb 3.9107 -1.3028 -5.9135 0
M  V30 8 Pb 2.3465 -1.3346 -7.1592 0
M  V30 9 Pb 3.2704 -0.3402 -6.8064 0
M  V30 10 Pb 2.8529 -2.2045 -6.1919 0
M  V30 11 Pd 2.4939 1.0924 5.6714 0
M  V30 12 Pb 1.7230 1.1042 6.3043 0
M  V30 13 Pb 3.2654 1.1161 5.0392 0
M  V30 14 Pb 2.7333 0.1538 5.9252 0
M  V30 15 Pb 2.1942 2.0023 5.3760 0
M  V30 16 Pd 0.8230 -3.6178 3.7514 0
M  V30 17 Pb 1.4887 -3.3531 4.4531 0
M  V30 18 Pb 0.1410 -3.8585 3.0570 0
M  V30 19 Pb 1.5591 -3.6982 3.0746 0
M  V30 20 Pb 0.0906 -3.5859 4.4320 0
M  V30 21 Pd 5.7397 -0.4979 -1.2661 0
M  V30 22 Pb 5.7815 -0.8628 -2.1992 0
M  V30 23 Pb 5.7496 -0.1199 -0.3424 0
M  V30 24 Pb 5.4738 -1.3830 -0.8833 0
M  V30 25 Pb 5.9086 0.4141 -1.6300 0
M  V30 26 Pd -4.3791 -2.6063 3.4122 0
M  V30 27 Pb -3.7687 -3.1039 2.7926 0
M  V30 28 Pb -4.9656 -2.0744 4.0185 0
M  V30 29 Pb -4.9255 -2.2320 2.6620 0
M  V30 30 Pb -3.8174 -2.9086 4.1815 0
M  V30 31 Pd -3.9632 4.0765 5.1143 0
M  V30 32 Pb -4.3944 4.3858 4.2659 0
M  V30 33 Pb -4.7622 3.5233 5.3300 0
M  V30 34 Pb -3.0872 4.4998 4.8811 0
M  V30 35 Pb -3.5025 3.6680 5.8990 0
M  V30 36 Pd 1.4100 3.6829 -4.9467 0
M  V30 37 Pb 2.3092 3.8853 -4.5683 0
M  V30 38 Pb 0.5129 3.4101 -5.2907 0
M  V30 39 Pb 1.8824 3.3190 -5.7546 0
M  V30 40 Pb 0.9679 3.9653 -4.0933 0
M  V30 41 Pd -1.4561 -2.5899 -5.5297 0
M  V30 42 Pb -1.2063 -2.5098 -6.4888 0
M  V30 43 Pb -1.6275 -2.5787 -4.5469 0
M  V30 44 Pb -2.0044 -1.7662 -5.6434 0
M  V30 45 Pb -0.7566 -3.2959 -5.4225 0
M  V30 46 Ag 5.9345 1.1058 -1.9076 0
M  V30 47 Fe 4.6018 2.6653 -3.0930 0
M  V30 48 Ag 2.9957 3.9384 -4.2817 0
M  V30 49 Ag 2.1144 -3.7864 2.5734 0
M  V30 50 Fe 3.6767 -2.9224 1.0036 0
M  V30 51 Ag 5.2208 -2.0098 -0.5568 0
M  V30 52 Ag 1.8882 2.6565 5.1642 0
M  V30 53 Fe -0.1734 3.8114 4.9037 0
M  V30 54 Ag -2.3743 4.6971 4.7521 0
M  V30 55 Ag 1.1198 1.2020 6.7343 0
M  V30 56 Fe -1.0280 2.2068 6.7403 0
M  V30 57 Ag -3.1048 3.3043 6.4164 0
M  V30 58 Ag -2.5875 2.8669 -0.1759 0
M  V30 59 Fe -0.9710 3.5150 -1.7948 0
M  V30 60 Ag 0.6347 4.1262 -3.4386 0
M  V30 61 Ag -0.1591 3.1420 -5.4822 0
M  V30 62 Fe -1.4012 1.1313 -5.6745 0
M  V30 63 Ag -2.2647 -1.0753 -5.7486 0
M  V30 64 Ag -3.1053 0.3361 -0.2675 0
M  V30 65 Fe -2.4070 -1.1002 -2.0236 0
M  V30 66 Ag -1.7166 -2.5048 -3.8080 0
M  V30 67 Ag -5.3885 -1.6013 4.4121 0
M  V30 68 Fe -5.5267 0.6753 5.0538 0
M  V30 69 Ag -5.2651 2.9923 5.4717 0
M  V30 70 Ag 3.8457 1.1400 4.5684 0
M  V30 71 Fe 4.8009 0.6471 2.4533 0
M  V30 72 Ag 5.7831 0.1677 0.3474 0
M  V30 73 Ba 4.5510 -1.3977 -5.5268 0
M  V30 74 Ga 5.1471 -1.2215 -4.1846 0
M  V30 75 Ba 5.8789 -1.1080 -2.9041 0
M  V30 76 Ba -4.6919 3.1974 0.9847 0
M  V30 77 Ga -4.7140 3.8875 2.2922 0
M  V30 78 Ba -4.7192 4.5568 3.6107 0
M  V30 79 Ba -0.3874 -4.0282 2.5483 0
M  V30 80 Ga -1.8364 -3.7563 2.4368 0
M  V30 81 Ba -3.2846 -3.4710 2.3492 0
M  V30 82 Ba 2.6116 -2.8807 -5.9617 0
M  V30 83 Ga 1.2533 -3.3748 -5.6502 0
M  V30 84 Ba -0.1525 -3.7377 -5.3710 0
M  V30 85 Ba 1.7926 -1.4290 -7.6546 0
M  V30 86 Ga 0.4092 -1.8982 -7.4945 0
M  V30 87 Ba -0.9430 -2.3730 -7.1712 0
M  V30 88 Ba -0.4677 -3.5903 4.9331 0
M  V30 89 Ga -1.9211 -3.3514 4.8575 0
M  V30 90 Ba -3.3713 -3.1061 4.7502 0
M  V30 91 Ba 2.8993 -0.5617 6.0840 0
M  V30 92 Ga 2.4439 -1.8586 5.5404 0
M  V30 93 Ba 1.9788 -3.1475 4.9863 0
M  V30 94 Ba 3.3375 0.3654 -7.0667 0
M  V30 95 Ga 2.8117 1.6973 -6.6857 0
M  V30 96 Ba 2.2951 3.0370 -6.3199 0
M  V30 97 Ba -5.1602 0.6398 0.6409 0
M  V30 98 Ga -5.2660 -0.6245 1.3984 0
M  V30 99 Ba -5.3649 -1.8872 2.1595 0
M  V30 END ATOM
M  V30 BEGIN BOND
M  V30 1 1 1 2
M  V30 2 1 1 3
M  V30 3 1 1 4
M  V30 4 1 1 5
M  V30 5 1 6 7
M  V30 6 1 6 8
M  V30 7 1 6 9
M  V30 8 1 6 10
M  V30 9 1 11 12
M  V30 10 1 11 13
M  V30 11 1 11 14
M  V30 12 1 11 15
M  V30 13 1 16 17
M  V30 14 1 16 18
M  V30 15 1 16 19
M  V30 16 1 16 20
M  V30 17 1 21 22
M  V30 18 1 21 23
M  V30 19 1 21 24
M  V30 20 1 21 25
M  V30 21 1 26 27
M  V30 22 1 26 28
M  V30 23 1 26 29
M  V30 24 1 26 30
M  V30 25 1 31 32
M  V30 26 1 31 33
M  V30 27 1 31 34
M  V30 28 1 31 35
M  V30 29 1 36 37
M  V30 30 1 36 38
M  V30 31 1 36 39
M  V30 32 1 36 40
M  V30 33 1 41 42
M  V30 34 1 41 43
M  V30 35 1 41 44
M  V30 36 1 41 45
M  V30 37 1 46 47
M  V30 38 1 47 48
M  V30 39 1 49 50
M  V30 40 1 50 51
M  V30 41 1 52 53
M  V30 42 1 53 54
M  V30 43 1 55 56
M  V30 44 1 56 57
M  V30 45 1 58 59
M  V30 46 1 59 60
M  V30 47 1 61 62
M  V30 48 1 62 63
M  V30 49 1 64 65
M  V30 50 1 65 66
M  V30 51 1 67 68
M  V30 52 1 68 69
M  V30 53 1 70 71
M  V30 54 1 71 72
M  V30 55 1 73 74
M  V30 56 1 74 75
M  V30 57 1 76 77
M  V30 58 1 77 78
M  V30 59 1 79 80
M  V30 60 1 80 81
M  V30 61 1 82 83
M  V30 62 1 83 84
M  V30 63 1 85 86
M  V30 64 1 86 87
M  V30 65 1 88 89
M  V30 66 1 89 90
M  V30 67 1 91 92
M  V30 68 1 92 93
M  V30 69 1 94 95
M  V30 70 1 95 96
M  V30 71 1 97 98
M  V30 72 1 98 99
M  V30 73 1 2 76
M  V30 74 1 3 64
M  V30 75 1 4 97
M  V30 76 1 5 58
M  V30 77 1 7 73
M  V30 78 1 8 85
M  V30 79 1 9 94
M  V30 80 1 10 82
M  V30 81 1 12 55
M  V30 82 1 13 70
M  V30 83 1 14 91
M  V30 84 1 15 52
M  V30 85 1 17 93
M  V30 86 1 18 79
M  V30 87 1 19 49
M  V30 88 1 20 88
M  V30 89 1 22 75
M  V30 90 1 23 72
M  V30 91 1 24 51
M  V30 92 1 25 46
M  V30 93 1 27 81
M  V30 94 1 28 67
M  V30 95 1 29 99
M  V30 96 1 30 90
M  V30 97 1 32 78
M  V30 98 1 33 69
M  V30 99 1 34 54
M  V30 100 1 35 57
M  V30 101 1 37 48
M  V30 102 1 38 61
M  V30 103 1 39 96
M  V30 104 1 40 60
M  V30 105 1 42 87
M  V30 106 1 43 66
M  V30 107 1 44 63
M  V30 108 1 45 84
M  V30 END BOND
M  V30 END CTAB
M  END

$$$$
