
     RDKit          3D

  0  0  0  0  0  0  0  0  0  0999 V3000
M  V30 BEGIN CTAB
M  V30 COUNTS 99 108 0 0 0
M  V30 BEGIN ATOM
M  V30 1 Pd -3.5157 -0.5275 0.8413 0
M  V30 2 Pb -3.1815 -1.4568 0.6670 0
M  V30 3 Pb -3.8983 0.3747 1.0367 0
M  V30 4 Pb -3.0187 -0.1195 0.0755 0
M  V30 5 Pb -3.9423 -0.8749 1.6750 0
M  V30 6 Pd 0.5812 4.9889 5.7822 0
M  V30 7 Pb 1.0081 4.6859 4.9292 0
M  V30 8 Pb 0.1368 5.3004 6.6198 0
M  V30 9 Pb 0.8155 4.1359 6.2461 0
M  V30 10 Pb 0.2130 5.7940 5.3169 0
M  V30 11 Pd 3.1938 -6.1846 -3.4647 0
M  V30 12 Pb 2.4756 -6.3355 -4.1464 0
M  V30 13 Pb 3.8346 -5.9256 -2.7459 0
M  V30 14 Pb 3.7950 -5.7484 -4.1349 0
M  V30 15 Pb 2.5981 -6.5977 -2.7795 0
M  V30 16 Pd 4.5311 0.3266 -6.7663 0
M  V30 17 Pb 5.0108 -0.5480 -6.7299 0
M  V30 18 Pb 4.1811 0.0955 -7.6699 0
M  V30 19 Pb 4.8767 0.5639 -5.8558 0
M  V30 20 Pb 3.9177 1.1315 -6.7637 0
M  V30 21 Pd 3.9331 -0.2218 0.9181 0
M  V30 22 Pb 3.5705 0.6851 1.1340 0
M  V30 23 Pb 4.3140 -1.1229 0.7122 0
M  V30 24 Pb 4.4554 0.1647 0.1562 0
M  V30 25 Pb 3.3639 -0.6260 1.6353 0
M  V30 26 Pd -1.0209 1.2721 -6.4323 0
M  V30 27 Pb -0.9576 1.0109 -7.3914 0
M  V30 28 Pb -1.7907 0.6556 -6.2830 0
M  V30 29 Pb -1.0442 1.4771 -5.4563 0
M  V30 30 Pb -0.1643 1.8034 -6.5369 0
M  V30 31 Pd -1.6638 -5.0196 -2.6530 0
M  V30 32 Pb -1.9882 -4.6578 -1.7769 0
M  V30 33 Pb -2.2087 -4.3604 -3.1714 0
M  V30 34 Pb -1.1192 -5.6858 -2.1479 0
M  V30 35 Pb -1.2743 -5.3851 -3.5031 0
M  V30 36 Pd -2.0364 0.2377 5.9079 0
M  V30 37 Pb -1.3320 -0.3029 5.4463 0
M  V30 38 Pb -2.7492 0.7660 6.3773 0
M  V30 39 Pb -1.2891 0.7087 6.3853 0
M  V30 40 Pb -2.7650 -0.2673 5.4385 0
M  V30 41 Pd -4.0059 5.2514 5.7861 0
M  V30 42 Pb -3.5777 5.5482 6.6355 0
M  V30 43 Pb -4.3709 4.9188 4.9185 0
M  V30 44 Pb -4.3512 4.4413 6.2582 0
M  V30 45 Pb -3.5410 6.0020 5.3155 0
M  V30 46 Ag 1.3120 4.4863 4.2723 0
M  V30 47 Fe 2.3098 2.9049 2.8071 0
M  V30 48 Ag 3.3116 1.3704 1.2954 0
M  V30 49 Ag 2.9134 -0.9439 2.1450 0
M  V30 50 Fe 1.0671 -0.8162 3.6349 0
M  V30 51 Ag -0.7780 -0.6964 5.1271 0
M  V30 52 Ag 5.1383 0.7421 -5.1732 0
M  V30 53 Fe 4.9944 0.6005 -2.8045 0
M  V30 54 Ag 4.8231 0.4392 -0.4389 0
M  V30 55 Ag 3.7842 -0.0246 -8.2857 0
M  V30 56 Fe 1.4784 0.2379 -8.6968 0
M  V30 57 Ag -0.7222 0.7865 -8.0575 0
M  V30 58 Ag 4.2622 -5.3907 -4.6007 0
M  V30 59 Fe 4.8495 -3.3593 -5.6808 0
M  V30 60 Ag 5.2756 -1.2459 -6.6756 0
M  V30 61 Ag -2.6333 0.2763 -0.4324 0
M  V30 62 Fe -1.8743 0.8936 -2.5955 0
M  V30 63 Ag -1.0590 1.5829 -4.7162 0
M  V30 64 Ag -4.2035 1.0397 1.1980 0
M  V30 65 Fe -4.4329 2.8630 2.7002 0
M  V30 66 Ag -4.5993 4.6428 4.2616 0
M  V30 67 Ag -2.3020 0.1437 -6.0948 0
M  V30 68 Fe -2.5602 -1.8693 -4.8641 0
M  V30 69 Ag -2.5958 -3.8672 -3.5830 0
M  V30 70 Ag 4.2575 -5.6494 -2.1952 0
M  V30 71 Fe 4.5064 -3.7613 -0.7792 0
M  V30 72 Ag 4.6005 -1.7959 0.5476 0
M  V30 73 Ba -2.9940 -2.1851 0.6301 0
M  V30 74 Ga -2.5834 -3.2571 -0.3007 0
M  V30 75 Ba -2.1722 -4.4436 -1.0800 0
M  V30 76 Ba 2.1264 -6.8795 -2.2730 0
M  V30 77 Ga 0.7166 -6.5669 -1.9935 0
M  V30 78 Ba -0.6891 -6.1834 -1.7925 0
M  V30 79 Ba -0.1628 6.3567 4.9930 0
M  V30 80 Ga -1.6277 6.5254 4.9389 0
M  V30 81 Ba -3.1023 6.5173 4.9911 0
M  V30 82 Ba -0.2521 5.5355 7.2135 0
M  V30 83 Ga -1.7096 5.6764 7.3295 0
M  V30 84 Ba -3.1737 5.7407 7.2321 0
M  V30 85 Ba 1.8846 -6.4031 -4.6066 0
M  V30 86 Ga 0.4618 -6.0519 -4.4010 0
M  V30 87 Ba -0.9398 -5.6738 -4.1141 0
M  V30 88 Ba 3.4289 1.7167 -6.7672 0
M  V30 89 Ga 1.9531 1.9197 -6.6844 0
M  V30 90 Ba 0.4883 2.1932 -6.6070 0
M  V30 91 Ba 0.9084 3.4922 6.6186 0
M  V30 92 Ga 0.1134 2.2471 6.6672 0
M  V30 93 Ba -0.6803 1.0015 6.7214 0
M  V30 94 Ba -4.2176 -1.1120 2.3302 0
M  V30 95 Ga -3.7789 -0.8867 3.7220 0
M  V30 96 Ba -3.3229 -0.6488 5.1063 0
M  V30 97 Ba -3.3228 1.1237 6.7113 0
M  V30 98 Ga -3.9343 2.4683 6.6694 0
M  V30 99 Ba -4.5402 3.8154 6.6249 0
M  V30 END ATOM
M  V30 BEGIN BOND
M  V30 1 1 1 2
M  V30 2 1 1 3
M  V30 3 1 1 4
M  V30 4 1 1 5
M  V30 5 1 6 7
M  V30 6 1 6 8
M  V30 7 1 6 9
M  V30 8 1 6 10
M  V30 9 1 11 12
M  V30 10 1 11 13
M  V30 11 1 11 14
M  V30 12 1 11 15
M  V30 13 1 16 17
M  V30 14 1 16 18
M  V30 15 1 16 19
M  V30 16 1 16 20
M  V30 17 1 21 22
M  V30 18 1 21 23
M  V30 19 1 21 24
M  V30 20 1 21 25
M  V30 21 1 26 27
M  V30 22 1 26 28
M  V30 23 1 26 29
M  V30 24 1 26 30
M  V30 25 1 31 32
M  V30 26 1 31 33
M  V30 27 1 31 34
M  V30 28 1 31 35
M  V30 29 1 36 37
M  V30 30 1 36 38
M  V30 31 1 36 39
M  V30 32 1 36 40
M  V30 33 1 41 42
M  V30 34 1 41 43
M  V30 35 1 41 44
M  V30 36 1 41 45
M  V30 37 1 46 47
M  V30 38 1 47 48
M  V30 39 1 49 50
M  V30 40 1 50 51
M  V30 41 1 52 53
M  V30 42 1 53 54
M  V30 43 1 55 56
M  V30 44 1 56 57
M  V30 45 1 58 59
M  V30 46 1 59 60
M  V30 47 1 61 62
M  V30 48 1 62 63
M  V30 49 1 64 65
M  V30 50 1 65 66
M  V30 51 1 67 68
M  V30 52 1 68 69
M  V30 53 1 70 71
M  V30 54 1 71 72
M  V30 55 1 73 74
M  V30 56 1 74 75
M  V30 57 1 76 77
M  V30 58 1 77 78
M  V30 59 1 79 80
M  V30 60 1 80 81
M  V30 61 1 82 83
M  V30 62 1 83 84
M  V30 63 1 85 86
M  V30 64 1 86 87
M  V30 65 1 88 89
M  V30 66 1 89 90
M  V30 67 1 91 92
M  V30 68 1 92 93
M  V30 69 1 94 95
M  V30 70 1 95 96
M  V30 71 1 97 98
M  V30 72 1 98 99
M  V30 73 1 2 73
M  V30 74 1 3 64
M  V30 75 1 4 61
M  V30 76 1 5 94
M  V30 77 1 7 46
M  V30 78 1 8 82
M  V30 79 1 9 91
M  V30 80 1 10 79
M  V30 81 1 12 85
M  V30 82 1 13 70
M  V30 83 1 14 58
M  V30 84 1 15 76
M  V30 85 1 17 60
M  V30 86 1 18 55
M  V30 87 1 19 52
M  V30 88 1 20 88
M  V30 89 1 22 48
M  V30 90 1 23 72
M  V30 91 1 24 54
M  V30 92 1 25 49
M  V30 93 1 27 57
M  V30 94 1 28 67
M  V30 95 1 29 63
M  V30 96 1 30 90
M  V30 97 1 32 75
M  V30 98 1 33 69
M  V30 99 1 34 78
M  V30 100 1 35 87
M  V30 101 1 37 51
M  V30 102 1 38 97
M  V30 103 1 39 93
M  V30 104 1 40 96
M  V30 105 1 42 84
M  V30 106 1 43 66
M  V30 107 1 44 99
M  V30 108 1 45 81
M  V30 END BOND
M  V30 END CTAB
M  END

$$$$
