
     RDKit          3D

  0  0  0  0  0  0  0  0  0  0999 V3000
M  V30 BEGIN CTAB
M  V30 COUNTS 99 108 0 0 0
M  V30 BEGIN ATOM
M  V30 1 Pd 3.5984 -0.9223 2.3150 0
M  V30 2 Pb 3.5227 -1.5719 3.0723 0
M  V30 3 Pb 2.7087 -0.5713 2.6067 0
M  V30 4 Pb 4.4459 -1.3461 1.9942 0
M  V30 5 Pb 3.6617 -0.2851 1.5433 0
M  V30 6 Pd -3.7656 7.2764 1.1734 0
M  V30 7 Pb -4.2753 6.9979 0.3570 0
M  V30 8 Pb -4.1556 6.5319 1.7179 0
M  V30 9 Pb -3.1998 7.9219 0.6630 0
M  V30 10 Pb -3.2484 7.5291 1.9862 0
M  V30 11 Pd -3.5550 -3.6046 -0.1014 0
M  V30 12 Pb -3.2702 -3.3227 0.8182 0
M  V30 13 Pb -4.0441 -2.7416 -0.2419 0
M  V30 14 Pb -3.8152 -3.8854 -1.0270 0
M  V30 15 Pb -3.0995 -4.4822 0.0441 0
M  V30 16 Pd -0.9708 -3.8290 -4.8334 0
M  V30 17 Pb -1.9094 -4.0339 -4.5520 0
M  V30 18 Pb -0.0164 -3.6441 -5.0735 0
M  V30 19 Pb -1.2201 -2.8788 -5.0207 0
M  V30 20 Pb -0.6813 -4.7681 -4.6507 0
M  V30 21 Pd -3.7581 3.4282 -3.1188 0
M  V30 22 Pb -4.2331 4.1964 -2.6796 0
M  V30 23 Pb -4.3349 2.7682 -2.6381 0
M  V30 24 Pb -3.3307 2.6809 -3.6291 0
M  V30 25 Pb -3.0980 4.0458 -3.5433 0
M  V30 26 Pd 5.0947 -6.3295 -2.1823 0
M  V30 27 Pb 5.0176 -5.7139 -2.9655 0
M  V30 28 Pb 5.0254 -6.8656 -1.3449 0
M  V30 29 Pb 5.7224 -5.7086 -1.7151 0
M  V30 30 Pb 4.3504 -6.8595 -2.5849 0
M  V30 31 Pd 0.4473 -5.1734 3.0731 0
M  V30 32 Pb 1.0793 -4.6739 3.6679 0
M  V30 33 Pb 1.1676 -5.8457 2.9068 0
M  V30 34 Pb -0.1547 -5.6673 2.4470 0
M  V30 35 Pb -0.2738 -4.4891 3.2030 0
M  V30 36 Pd 2.7437 5.9492 -1.1338 0
M  V30 37 Pb 2.2522 5.9372 -2.0029 0
M  V30 38 Pb 3.1525 5.9037 -0.2219 0
M  V30 39 Pb 2.2808 6.8205 -0.9680 0
M  V30 40 Pb 3.1063 5.0290 -1.2795 0
M  V30 41 Pd 0.2856 3.2219 4.8612 0
M  V30 42 Pb -0.7123 3.1278 4.8625 0
M  V30 43 Pb 0.3716 2.2885 4.5152 0
M  V30 44 Pb 1.2464 3.4316 4.6896 0
M  V30 45 Pb 0.1499 4.1739 5.1154 0
M  V30 46 Ag -2.5303 4.4465 -3.8220 0
M  V30 47 Fe -0.3518 5.2545 -3.3384 0
M  V30 48 Ag 1.7946 5.9423 -2.5953 0
M  V30 49 Ag -1.3822 -2.1626 -5.1733 0
M  V30 50 Fe -2.2181 -0.0256 -4.5590 0
M  V30 51 Ag -3.0244 2.1543 -4.0680 0
M  V30 52 Ag 0.7202 -3.5741 -5.2037 0
M  V30 53 Fe 2.8584 -4.3161 -4.4817 0
M  V30 54 Ag 4.8194 -5.2478 -3.5180 0
M  V30 55 Ag -2.8361 7.6370 2.5974 0
M  V30 56 Fe -1.3850 6.4626 4.0523 0
M  V30 57 Ag -0.0323 4.8907 5.1924 0
M  V30 58 Ag -4.2878 5.9506 2.1765 0
M  V30 59 Fe -3.0487 4.4472 3.5409 0
M  V30 60 Ag -1.4569 3.1666 4.7590 0
M  V30 61 Ag -0.3700 -5.4374 -4.5210 0
M  V30 62 Fe 1.6162 -6.4634 -3.7234 0
M  V30 63 Ag 3.7212 -7.1496 -2.8679 0
M  V30 64 Ag -2.6450 8.3239 0.3599 0
M  V30 65 Fe -0.3859 8.0489 -0.3203 0
M  V30 66 Ag 1.8273 7.4159 -0.9066 0
M  V30 67 Ag 5.0414 -1.6941 1.6987 0
M  V30 68 Fe 5.7193 -3.4226 0.2183 0
M  V30 69 Ag 6.0950 -5.2062 -1.3033 0
M  V30 70 Ag 3.7475 0.1619 0.9436 0
M  V30 71 Fe 3.5501 2.2363 -0.1998 0
M  V30 72 Ag 3.3425 4.3187 -1.3266 0
M  V30 73 Ag 3.4151 5.7552 0.4655 0
M  V30 74 Fe 2.8299 4.7528 2.5373 0
M  V30 75 Ag 1.9038 3.7033 4.4556 0
M  V30 76 Ag 4.8668 -7.1814 -0.6874 0
M  V30 77 Fe 3.3569 -6.8898 1.1183 0
M  V30 78 Ag 1.7201 -6.3229 2.7390 0
M  V30 79 Ag -4.4337 -2.1107 -0.3667 0
M  V30 80 Fe -4.6043 0.0683 -1.2990 0
M  V30 81 Ag -4.7062 2.2415 -2.2545 0
M  V30 82 Ba -4.6751 6.7919 -0.2456 0
M  V30 83 Ga -4.6075 5.7640 -1.3068 0
M  V30 84 Ba -4.6307 4.7766 -2.4075 0
M  V30 85 Ba 3.4167 -2.0437 3.6467 0
M  V30 86 Ga 2.5070 -3.1835 3.8787 0
M  V30 87 Ba 1.5895 -4.3209 4.0920 0
M  V30 88 Ba -2.7692 -5.1427 0.1720 0
M  V30 89 Ga -1.6845 -5.5950 1.0616 0
M  V30 90 Ba -0.5971 -6.0245 1.9593 0
M  V30 91 Ba -3.0401 -3.1240 1.5073 0
M  V30 92 Ga -1.9361 -3.5478 2.3958 0
M  V30 93 Ba -0.8267 -3.9831 3.2720 0
M  V30 94 Ba -4.0073 -4.0863 -1.7253 0
M  V30 95 Ga -3.3100 -4.1402 -3.0262 0
M  V30 96 Ba -2.6076 -4.1921 -4.3244 0
M  V30 97 Ba 2.0168 -0.4112 2.8488 0
M  V30 98 Ga 1.2480 0.6409 3.5392 0
M  V30 99 Ba 0.3579 1.6005 4.2188 0
M  V30 END ATOM
M  V30 BEGIN BOND
M  V30 1 1 1 2
M  V30 2 1 1 3
M  V30 3 1 1 4
M  V30 4 1 1 5
M  V30 5 1 6 7
M  V30 6 1 6 8
M  V30 7 1 6 9
M  V30 8 1 6 10
M  V30 9 1 11 12
M  V30 10 1 11 13
M  V30 11 1 11 14
M  V30 12 1 11 15
M  V30 13 1 16 17
M  V30 14 1 16 18
M  V30 15 1 16 19
M  V30 16 1 16 20
M  V30 17 1 21 22
M  V30 18 1 21 23
M  V30 19 1 21 24
M  V30 20 1 21 25
M  V30 21 1 26 27
M  V30 22 1 26 28
M  V30 23 1 26 29
M  V30 24 1 26 30
M  V30 25 1 31 32
M  V30 26 1 31 33
M  V30 27 1 31 34
M  V30 28 1 31 35
M  V30 29 1 36 37
M  V30 30 1 36 38
M  V30 31 1 36 39
M  V30 32 1 36 40
M  V30 33 1 41 42
M  V30 34 1 41 43
M  V30 35 1 41 44
M  V30 36 1 41 45
M  V30 37 1 46 47
M  V30 38 1 47 48
M  V30 39 1 49 50
M  V30 40 1 50 51
M  V30 41 1 52 53
M  V30 42 1 53 54
M  V30 43 1 55 56
M  V30 44 1 56 57
M  V30 45 1 58 59
M  V30 46 1 59 60
M  V30 47 1 61 62
M  V30 48 1 62 63
M  V30 49 1 64 65
M  V30 50 1 65 66
M  V30 51 1 67 68
M  V30 52 1 68 69
M  V30 53 1 70 71
M  V30 54 1 71 72
M  V30 55 1 73 74
M  V30 56 1 74 75
M  V30 57 1 76 77
M  V30 58 1 77 78
M  V30 59 1 79 80
M  V30 60 1 80 81
M  V30 61 1 82 83
M  V30 62 1 83 84
M  V30 63 1 85 86
M  V30 64 1 86 87
M  V30 65 1 88 89
M  V30 66 1 89 90
M  V30 67 1 91 92
M  V30 68 1 92 93
M  V30 69 1 94 95
M  V30 70 1 95 96
M  V30 71 1 97 98
M  V30 72 1 98 99
M  V30 73 1 2 85
M  V30 74 1 3 97
M  V30 75 1 4 67
M  V30 76 1 5 70
M  V30 77 1 7 82
M  V30 78 1 8 58
M  V30 79 1 9 64
M  V30 80 1 10 55
M  V30 81 1 12 91
M  V30 82 1 13 79
M  V30 83 1 14 94
M  V30 84 1 15 88
M  V30 85 1 17 96
M  V30 86 1 18 52
M  V30 87 1 19 49
M  V30 88 1 20 61
M  V30 89 1 22 84
M  V30 90 1 23 81
M  V30 91 1 24 51
M  V30 92 1 25 46
M  V30 93 1 27 54
M  V30 94 1 28 76
M  V30 95 1 29 69
M  V30 96 1 30 63
M  V30 97 1 32 87
M  V30 98 1 33 78
M  V30 99 1 34 90
M  V30 100 1 35 93
M  V30 101 1 37 48
M  V30 102 1 38 73
M  V30 103 1 39 66
M  V30 104 1 40 72
M  V30 105 1 42 60
M  V30 106 1 43 99
M  V30 107 1 44 75
M  V30 108 1 45 57
M  V30 END BOND
M  V30 END CTAB
M  END

$$$$
