
     RDKit          3D

  0  0  0  0  0  0  0  0  0  0999 V3000
M  V30 BEGIN CTAB
M  V30 COUNTS 99 108 0 0 0
M  V30 BEGIN ATOM
M  V30 1 Pd 5.5308 0.9317 -2.8862 0
M  V30 2 Pb 5.1024 1.5158 -3.5686 0
M  V30 3 Pb 6.2464 1.6129 -2.7441 0
M  V30 4 Pb 5.9753 0.3625 -2.1908 0
M  V30 5 Pb 4.7484 0.3120 -3.0067 0
M  V30 6 Pd 6.8605 2.5332 1.5875 0
M  V30 7 Pb 6.5164 2.1177 2.4231 0
M  V30 8 Pb 7.1684 1.6380 1.2660 0
M  V30 9 Pb 7.2075 2.9287 0.7390 0
M  V30 10 Pb 6.3840 3.3978 1.8299 0
M  V30 11 Pd -1.0485 -4.4440 -2.3310 0
M  V30 12 Pb -1.9670 -4.3517 -2.7193 0
M  V30 13 Pb -0.1511 -4.4366 -1.8791 0
M  V30 14 Pb -1.3854 -5.1206 -1.6792 0
M  V30 15 Pb -0.7627 -3.7942 -3.0298 0
M  V30 16 Pd -5.3959 -4.7282 3.4082 0
M  V30 17 Pb -4.9459 -5.0260 4.2467 0
M  V30 18 Pb -5.7829 -4.3782 2.5543 0
M  V30 19 Pb -5.6544 -3.8698 3.8653 0
M  V30 20 Pb -5.0030 -5.4945 2.9091 0
M  V30 21 Pd -1.3175 2.7865 -4.5042 0
M  V30 22 Pb -2.2087 2.5669 -4.0997 0
M  V30 23 Pb -1.2711 3.6796 -4.0597 0
M  V30 24 Pb -1.2334 1.8634 -4.8674 0
M  V30 25 Pb -0.4207 2.9856 -4.8868 0
M  V30 26 Pd 1.5524 4.4854 1.7062 0
M  V30 27 Pb 1.6379 3.8886 2.4970 0
M  V30 28 Pb 0.7323 4.0068 1.4011 0
M  V30 29 Pb 2.4794 4.8508 1.9036 0
M  V30 30 Pb 1.3900 5.0842 0.9240 0
M  V30 31 Pd -4.6238 -0.8852 -1.0707 0
M  V30 32 Pb -4.3983 -0.1204 -1.6867 0
M  V30 33 Pb -4.5734 -0.2275 -0.3136 0
M  V30 34 Pb -4.6189 -1.5517 -1.8207 0
M  V30 35 Pb -5.0554 -1.6031 -0.5125 0
M  V30 36 Pd 1.1122 -0.5128 -0.0747 0
M  V30 37 Pb 1.0178 -0.4037 0.9159 0
M  V30 38 Pb 1.5137 -1.4276 -0.0117 0
M  V30 39 Pb 1.3266 -0.5753 -1.0511 0
M  V30 40 Pb 0.5882 0.3380 -0.1498 0
M  V30 41 Pd -2.6281 -0.1299 4.1968 0
M  V30 42 Pb -3.5651 -0.4361 4.4111 0
M  V30 43 Pb -2.2966 -0.6793 4.9603 0
M  V30 44 Pb -2.9995 0.3990 3.4305 0
M  V30 45 Pb -1.6781 0.0795 3.9667 0
M  V30 46 Ag -1.6869 -5.6173 -1.2081 0
M  V30 47 Fe -3.1374 -5.9527 0.6369 0
M  V30 48 Ag -4.6224 -5.9739 2.4844 0
M  V30 49 Ag -1.0912 4.3083 -3.6941 0
M  V30 50 Fe 0.0047 5.0613 -1.7274 0
M  V30 51 Ag 1.1299 5.4524 0.3259 0
M  V30 52 Ag 6.1175 1.8804 2.9990 0
M  V30 53 Fe 3.8732 2.3636 3.5102 0
M  V30 54 Ag 1.8297 3.4342 3.0492 0
M  V30 55 Ag -0.6572 -3.3145 -3.5922 0
M  V30 56 Fe -0.8431 -1.0921 -4.3964 0
M  V30 57 Ag -1.0693 1.1670 -5.0787 0
M  V30 58 Ag 4.7262 1.9295 -4.0604 0
M  V30 59 Fe 2.5491 2.6019 -4.7050 0
M  V30 60 Ag 0.2743 3.1088 -5.1247 0
M  V30 61 Ag -4.5189 -5.0603 4.8523 0
M  V30 62 Fe -3.0924 -3.3620 5.6466 0
M  V30 63 Ag -2.1645 -1.2033 5.4700 0
M  V30 64 Ba 0.9930 -0.2273 1.6460 0
M  V30 65 Ga -0.0062 -0.0433 2.7171 0
M  V30 66 Ba -0.9434 0.1613 3.8393 0
M  V30 67 Ba 5.9974 4.0387 1.9983 0
M  V30 68 Ga 4.5828 4.5283 2.0114 0
M  V30 69 Ba 3.1942 5.0865 2.0492 0
M  V30 70 Ba 6.7486 2.1442 -2.5849 0
M  V30 71 Ga 7.1499 2.6995 -1.2820 0
M  V30 72 Ba 7.4646 3.1670 0.0779 0
M  V30 73 Ba -4.4955 0.3174 0.2022 0
M  V30 74 Ga -3.9059 0.5147 1.5449 0
M  V30 75 Ba -3.3397 0.7892 2.8842 0
M  V30 76 Ba -5.8010 -3.2002 4.1865 0
M  V30 77 Ga -5.0271 -1.9462 4.3783 0
M  V30 78 Ba -4.2620 -0.6875 4.5750 0
M  V30 79 Ba 6.3579 -0.0071 -1.6581 0
M  V30 80 Ga 6.8588 0.4245 -0.3365 0
M  V30 81 Ba 7.3057 0.9649 0.9642 0
M  V30 82 Ba 4.1139 -0.0731 -3.1501 0
M  V30 83 Ga 2.8451 -0.3771 -2.4483 0
M  V30 84 Ba 1.5746 -0.6879 -1.7528 0
M  V30 85 Ba -2.6472 -4.2058 -3.0048 0
M  V30 86 Ga -3.6451 -3.1590 -2.6945 0
M  V30 87 Ba -4.6091 -2.0929 -2.3449 0
M  V30 88 Ba 0.1783 3.6306 1.0671 0
M  V30 89 Ga 0.1378 2.2815 0.4688 0
M  V30 90 Ba 0.1238 0.9302 -0.1259 0
M  V30 91 Ba -2.8886 2.4102 -3.8168 0
M  V30 92 Ga -3.5486 1.4018 -2.9544 0
M  V30 93 Ba -4.3781 0.4988 -2.1233 0
M  V30 94 Ba -6.0677 -4.1107 1.9133 0
M  V30 95 Ga -5.7064 -3.1014 0.8920 0
M  V30 96 Ba -5.4983 -2.1397 -0.2134 0
M  V30 97 Ba 0.4974 -4.3962 -1.4946 0
M  V30 98 Ga 1.1631 -3.2958 -0.7610 0
M  V30 99 Ba 1.7570 -2.1378 -0.0551 0
M  V30 END ATOM
M  V30 BEGIN BOND
M  V30 1 1 1 2
M  V30 2 1 1 3
M  V30 3 1 1 4
M  V30 4 1 1 5
M  V30 5 1 6 7
M  V30 6 1 6 8
M  V30 7 1 6 9
M  V30 8 1 6 10
M  V30 9 1 11 12
M  V30 10 1 11 13
M  V30 11 1 11 14
M  V30 12 1 11 15
M  V30 13 1 16 17
M  V30 14 1 16 18
M  V30 15 1 16 19
M  V30 16 1 16 20
M  V30 17 1 21 22
M  V30 18 1 21 23
M  V30 19 1 21 24
M  V30 20 1 21 25
M  V30 21 1 26 27
M  V30 22 1 26 28
M  V30 23 1 26 29
M  V30 24 1 26 30
M  V30 25 1 31 32
M  V30 26 1 31 33
M  V30 27 1 31 34
M  V30 28 1 31 35
M  V30 29 1 36 37
M  V30 30 1 36 38
M  V30 31 1 36 39
M  V30 32 1 36 40
M  V30 33 1 41 42
M  V30 34 1 41 43
M  V30 35 1 41 44
M  V30 36 1 41 45
M  V30 37 1 46 47
M  V30 38 1 47 48
M  V30 39 1 49 50
M  V30 40 1 50 51
M  V30 41 1 52 53
M  V30 42 1 53 54
M  V30 43 1 55 56
M  V30 44 1 56 57
M  V30 45 1 58 59
M  V30 46 1 59 60
M  V30 47 1 61 62
M  V30 48 1 62 63
M  V30 49 1 64 65
M  V30 50 1 65 66
M  V30 51 1 67 68
M  V30 52 1 68 69
M  V30 53 1 70 71
M  V30 54 1 71 72
M  V30 55 1 73 74
M  V30 56 1 74 75
M  V30 57 1 76 77
M  V30 58 1 77 78
M  V30 59 1 79 80
M  V30 60 1 80 81
M  V30 61 1 82 83
M  V30 62 1 83 84
M  V30 63 1 85 86
M  V30 64 1 86 87
M  V30 65 1 88 89
M  V30 66 1 89 90
M  V30 67 1 91 92
M  V30 68 1 92 93
M  V30 69 1 94 95
M  V30 70 1 95 96
M  V30 71 1 97 98
M  V30 72 1 98 99
M  V30 73 1 2 58
M  V30 74 1 3 70
M  V30 75 1 4 79
M  V30 76 1 5 82
M  V30 77 1 7 52
M  V30 78 1 8 81
M  V30 79 1 9 72
M  V30 80 1 10 67
M  V30 81 1 12 85
M  V30 82 1 13 97
M  V30 83 1 14 46
M  V30 84 1 15 55
M  V30 85 1 17 61
M  V30 86 1 18 94
M  V30 87 1 19 76
M  V30 88 1 20 48
M  V30 89 1 22 91
M  V30 90 1 23 49
M  V30 91 1 24 57
M  V30 92 1 25 60
M  V30 93 1 27 54
M  V30 94 1 28 88
M  V30 95 1 29 69
M  V30 96 1 30 51
M  V30 97 1 32 93
M  V30 98 1 33 73
M  V30 99 1 34 87
M  V30 100 1 35 96
M  V30 101 1 37 64
M  V30 102 1 38 99
M  V30 103 1 39 84
M  V30 104 1 40 90
M  V30 105 1 42 78
M  V30 106 1 43 63
M  V30 107 1 44 75
M  V30 108 1 45 66
M  V30 END BOND
M  V30 END CTAB
M  END

$$$$
