
     RDKit          3D

  0  0  0  0  0  0  0  0  0  0999 V3000
M  V30 BEGIN CTAB
M  V30 COUNTS 99 108 0 0 0
M  V30 BEGIN ATOM
M  V30 1 Pd -3.4065 -1.0943 -3.4139 0
M  V30 2 Pb -2.6930 -1.2598 -4.0940 0
M  V30 3 Pb -4.1776 -0.9349 -2.7922 0
M  V30 4 Pb -3.2884 -2.0065 -3.0116 0
M  V30 5 Pb -3.4508 -0.1593 -3.7669 0
M  V30 6 Pd -4.8791 3.9945 4.8906 0
M  V30 7 Pb -4.0609 3.4410 4.7368 0
M  V30 8 Pb -5.4104 3.1677 5.0794 0
M  V30 9 Pb -4.3877 4.8134 4.6003 0
M  V30 10 Pb -5.7290 4.5157 4.9253 0
M  V30 11 Pd 6.4963 -0.1877 -0.2546 0
M  V30 12 Pb 6.2746 0.5645 -0.8603 0
M  V30 13 Pb 6.4922 0.4782 0.4928 0
M  V30 14 Pb 6.7970 -0.9134 0.3731 0
M  V30 15 Pb 6.4704 -0.8296 -1.0515 0
M  V30 16 Pd 4.8781 -4.8198 2.4986 0
M  V30 17 Pb 5.7101 -4.2655 2.4517 0
M  V30 18 Pb 5.3501 -5.5595 2.0345 0
M  V30 19 Pb 4.4438 -4.0923 3.0241 0
M  V30 20 Pb 4.0048 -5.3469 2.4512 0
M  V30 21 Pd 2.6204 2.4197 2.6375 0
M  V30 22 Pb 1.6474 2.3139 2.8447 0
M  V30 23 Pb 3.6103 2.4869 2.4948 0
M  V30 24 Pb 2.7739 1.6405 3.2385 0
M  V30 25 Pb 2.4466 3.1497 1.9733 0
M  V30 26 Pd 1.0215 -7.1959 -1.1373 0
M  V30 27 Pb 1.8436 -7.7511 -1.1670 0
M  V30 28 Pb 1.0564 -7.1799 -2.1308 0
M  V30 29 Pb 0.1701 -6.6637 -1.1474 0
M  V30 30 Pb 1.1543 -7.0714 -0.1368 0
M  V30 31 Pd 3.8435 -1.9834 -5.3493 0
M  V30 32 Pb 2.9889 -1.8588 -5.8449 0
M  V30 33 Pb 3.6092 -2.9535 -5.3258 0
M  V30 34 Pb 4.6345 -2.0938 -4.7118 0
M  V30 35 Pb 4.0201 -1.0097 -5.4073 0
M  V30 36 Pd -2.5568 6.1411 -1.5495 0
M  V30 37 Pb -1.5675 6.0392 -1.4401 0
M  V30 38 Pb -3.5540 6.1791 -1.6036 0
M  V30 39 Pb -2.5746 6.6060 -0.6665 0
M  V30 40 Pb -2.5781 5.5816 -2.3767 0
M  V30 41 Pd -8.0902 2.7258 1.7279 0
M  V30 42 Pb -8.0146 2.1372 2.5325 0
M  V30 43 Pb -7.8589 1.9572 1.1282 0
M  V30 44 Pb -8.0475 3.3587 0.9568 0
M  V30 45 Pb -8.2804 3.4913 2.3433 0
M  V30 46 Ag -3.4804 3.0015 4.5572 0
M  V30 47 Fe -1.2515 2.6592 3.8103 0
M  V30 48 Ag 0.9495 2.1555 3.0724 0
M  V30 49 Ag -2.1901 -1.3363 -4.6450 0
M  V30 50 Fe 0.0346 -1.5643 -5.4384 0
M  V30 51 Ag 2.2967 -1.7963 -6.1158 0
M  V30 52 Ag 2.3139 3.6641 1.4407 0
M  V30 53 Fe 0.7710 4.8298 0.0585 0
M  V30 54 Ag -0.8383 5.9518 -1.2834 0
M  V30 55 Ag 4.1684 -3.5339 3.4371 0
M  V30 56 Fe 3.5005 -1.2646 3.5962 0
M  V30 57 Ag 2.8570 1.0168 3.6391 0
M  V30 58 Ag 5.5795 -6.1445 1.6466 0
M  V30 59 Fe 4.4223 -7.4934 0.1087 0
M  V30 60 Ag 2.5087 -8.0702 -1.1279 0
M  V30 61 Ag 6.0994 1.0563 -1.3821 0
M  V30 62 Fe 5.1355 0.8673 -3.5178 0
M  V30 63 Ag 4.1765 -0.2942 -5.3222 0
M  V30 64 Ag -4.0495 5.4074 4.2967 0
M  V30 65 Fe -3.2722 6.2776 2.2312 0
M  V30 66 Ag -2.5983 6.8663 0.0342 0
M  V30 67 Ag -3.1938 -2.6678 -2.6618 0
M  V30 68 Fe -1.8172 -4.4702 -1.9410 0
M  V30 69 Ag -0.4873 -6.2970 -1.1949 0
M  V30 70 Ag -3.4003 0.5433 -4.0265 0
M  V30 71 Fe -3.0408 2.8444 -3.5607 0
M  V30 72 Ag -2.6756 5.1107 -2.9512 0
M  V30 73 Ag -4.3019 6.1359 -1.6237 0
M  V30 74 Fe -6.2006 5.0640 -0.6856 0
M  V30 75 Ag -7.9250 3.8601 0.4148 0
M  V30 76 Ag -4.7867 -0.8575 -2.3561 0
M  V30 77 Fe -6.1977 0.2991 -0.8310 0
M  V30 78 Ag -7.6746 1.3726 0.6925 0
M  V30 79 Ag 1.2263 -7.0751 -2.8481 0
M  V30 80 Fe 2.2641 -5.4365 -4.2118 0
M  V30 81 Ag 3.3331 -3.6493 -5.3462 0
M  V30 82 Ba 6.4938 -1.3125 -1.6547 0
M  V30 83 Ga 5.7941 -1.6952 -2.9272 0
M  V30 84 Ba 5.2207 -2.1986 -4.2209 0
M  V30 85 Ba -6.3942 4.8505 4.8604 0
M  V30 86 Ga -7.4428 4.5181 3.8812 0
M  V30 87 Ba -8.3702 4.0480 2.8379 0
M  V30 88 Ba -5.8523 2.5643 5.1443 0
M  V30 89 Ga -6.8892 2.0886 4.2085 0
M  V30 90 Ba -7.8807 1.7600 3.1665 0
M  V30 91 Ba 3.3392 -5.7354 2.4305 0
M  V30 92 Ga 2.3515 -6.3322 1.4732 0
M  V30 93 Ba 1.3006 -6.9632 0.6093 0
M  V30 94 Ba 7.0789 -1.4182 0.8594 0
M  V30 95 Ga 6.6721 -2.6272 1.6088 0
M  V30 96 Ba 6.3245 -3.8391 2.3830 0
M  V30 97 Ba 6.4756 1.0225 1.0104 0
M  V30 98 Ga 5.4104 1.7583 1.7230 0
M  V30 99 Ba 4.3609 2.5070 2.4453 0
M  V30 END ATOM
M  V30 BEGIN BOND
M  V30 1 1 1 2
M  V30 2 1 1 3
M  V30 3 1 1 4
M  V30 4 1 1 5
M  V30 5 1 6 7
M  V30 6 1 6 8
M  V30 7 1 6 9
M  V30 8 1 6 10
M  V30 9 1 11 12
M  V30 10 1 11 13
M  V30 11 1 11 14
M  V30 12 1 11 15
M  V30 13 1 16 17
M  V30 14 1 16 18
M  V30 15 1 16 19
M  V30 16 1 16 20
M  V30 17 1 21 22
M  V30 18 1 21 23
M  V30 19 1 21 24
M  V30 20 1 21 25
M  V30 21 1 26 27
M  V30 22 1 26 28
M  V30 23 1 26 29
M  V30 24 1 26 30
M  V30 25 1 31 32
M  V30 26 1 31 33
M  V30 27 1 31 34
M  V30 28 1 31 35
M  V30 29 1 36 37
M  V30 30 1 36 38
M  V30 31 1 36 39
M  V30 32 1 36 40
M  V30 33 1 41 42
M  V30 34 1 41 43
M  V30 35 1 41 44
M  V30 36 1 41 45
M  V30 37 1 46 47
M  V30 38 1 47 48
M  V30 39 1 49 50
M  V30 40 1 50 51
M  V30 41 1 52 53
M  V30 42 1 53 54
M  V30 43 1 55 56
M  V30 44 1 56 57
M  V30 45 1 58 59
M  V30 46 1 59 60
M  V30 47 1 61 62
M  V30 48 1 62 63
M  V30 49 1 64 65
M  V30 50 1 65 66
M  V30 51 1 67 68
M  V30 52 1 68 69
M  V30 53 1 70 71
M  V30 54 1 71 72
M  V30 55 1 73 74
M  V30 56 1 74 75
M  V30 57 1 76 77
M  V30 58 1 77 78
M  V30 59 1 79 80
M  V30 60 1 80 81
M  V30 61 1 82 83
M  V30 62 1 83 84
M  V30 63 1 85 86
M  V30 64 1 86 87
M  V30 65 1 88 89
M  V30 66 1 89 90
M  V30 67 1 91 92
M  V30 68 1 92 93
M  V30 69 1 94 95
M  V30 70 1 95 96
M  V30 71 1 97 98
M  V30 72 1 98 99
M  V30 73 1 2 49
M  V30 74 1 3 76
M  V30 75 1 4 67
M  V30 76 1 5 70
M  V30 77 1 7 46
M  V30 78 1 8 88
M  V30 79 1 9 64
M  V30 80 1 10 85
M  V30 81 1 12 61
M  V30 82 1 13 97
M  V30 83 1 14 94
M  V30 84 1 15 82
M  V30 85 1 17 96
M  V30 86 1 18 58
M  V30 87 1 19 55
M  V30 88 1 20 91
M  V30 89 1 22 48
M  V30 90 1 23 99
M  V30 91 1 24 57
M  V30 92 1 25 52
M  V30 93 1 27 60
M  V30 94 1 28 79
M  V30 95 1 29 69
M  V30 96 1 30 93
M  V30 97 1 32 51
M  V30 98 1 33 81
M  V30 99 1 34 84
M  V30 100 1 35 63
M  V30 101 1 37 54
M  V30 102 1 38 73
M  V30 103 1 39 66
M  V30 104 1 40 72
M  V30 105 1 42 90
M  V30 106 1 43 78
M  V30 107 1 44 75
M  V30 108 1 45 87
M  V30 END BOND
M  V30 END CTAB
M  END

$$$$
