
     RDKit          3D

  0  0  0  0  0  0  0  0  0  0999 V3000
M  V30 BEGIN CTAB
M  V30 COUNTS 99 108 0 0 0
M  V30 BEGIN ATOM
M  V30 1 Pd 0.0747 -0.0004 5.2812 0
M  V30 2 Pb 0.8816 -0.5467 5.0530 0
M  V30 3 Pb -0.7176 0.5386 5.5793 0
M  V30 4 Pb -0.5396 -0.7648 5.0724 0
M  V30 5 Pb 0.7007 0.7561 5.4704 0
M  V30 6 Pd -3.2062 4.1313 -0.8081 0
M  V30 7 Pb -2.5138 3.4204 -0.6860 0
M  V30 8 Pb -3.8724 4.8688 -0.8753 0
M  V30 9 Pb -2.5282 4.7293 -1.2320 0
M  V30 10 Pb -3.8203 3.6332 -0.1718 0
M  V30 11 Pd 3.9718 -2.0995 -5.5957 0
M  V30 12 Pb 4.6205 -1.7877 -4.8991 0
M  V30 13 Pb 3.7954 -1.1612 -5.8987 0
M  V30 14 Pb 3.2459 -2.4641 -6.1775 0
M  V30 15 Pb 4.1383 -3.0237 -5.2615 0
M  V30 16 Pd -2.9155 -4.2620 -4.2417 0
M  V30 17 Pb -2.2346 -4.3443 -4.9706 0
M  V30 18 Pb -3.5783 -4.1480 -3.5006 0
M  V30 19 Pb -2.9862 -3.2990 -4.4918 0
M  V30 20 Pb -2.7743 -5.2043 -3.9381 0
M  V30 21 Pd 1.2681 1.8639 -3.3795 0
M  V30 22 Pb 0.7604 1.8269 -2.5189 0
M  V30 23 Pb 1.7863 1.8381 -4.2351 0
M  V30 24 Pb 0.4599 1.5037 -3.8439 0
M  V30 25 Pb 2.0529 2.2471 -2.8905 0
M  V30 26 Pd -2.5105 -5.7794 0.6511 0
M  V30 27 Pb -3.2853 -5.3007 0.2388 0
M  V30 28 Pb -1.7061 -6.2296 1.0373 0
M  V30 29 Pb -2.5805 -5.2226 1.4816 0
M  V30 30 Pb -2.4360 -6.3260 -0.1856 0
M  V30 31 Pd 4.7158 -4.6135 0.9885 0
M  V30 32 Pb 4.6064 -4.0811 1.8261 0
M  V30 33 Pb 4.1178 -5.3184 1.3653 0
M  V30 34 Pb 4.7688 -5.1088 0.1258 0
M  V30 35 Pb 5.2204 -3.8748 0.5362 0
M  V30 36 Pd 2.5673 6.2699 2.3957 0
M  V30 37 Pb 3.1450 5.7673 1.7529 0
M  V30 38 Pb 1.9248 6.6881 3.0402 0
M  V30 39 Pb 2.1323 6.6816 1.5952 0
M  V30 40 Pb 2.8977 5.7349 3.1692 0
M  V30 41 Pd -3.8985 4.4461 4.5843 0
M  V30 42 Pb -4.3789 5.2226 4.1880 0
M  V30 43 Pb -3.4931 3.6622 5.0635 0
M  V30 44 Pb -3.3069 5.0864 5.0709 0
M  V30 45 Pb -4.3434 3.8497 3.8960 0
M  V30 46 Ag 1.5206 -0.9227 4.9339 0
M  V30 47 Fe 2.9873 -2.3038 3.6763 0
M  V30 48 Ag 4.4797 -3.6833 2.4475 0
M  V30 49 Ag 2.6080 2.5532 -2.4879 0
M  V30 50 Fe 3.1626 3.9472 -0.6460 0
M  V30 51 Ag 3.5010 5.3667 1.2284 0
M  V30 52 Ag -2.9468 -2.5749 -4.6732 0
M  V30 53 Fe -1.6148 -0.6225 -4.4610 0
M  V30 54 Ag -0.1667 1.2320 -4.1521 0
M  V30 55 Ag 4.2672 -3.6844 -4.9393 0
M  V30 56 Fe 4.5527 -4.7114 -2.8231 0
M  V30 57 Ag 4.7847 -5.3897 -0.5647 0
M  V30 58 Ag -4.3344 5.4234 -0.7143 0
M  V30 59 Fe -4.9137 6.0720 1.4698 0
M  V30 60 Ag -4.7346 5.7388 3.7915 0
M  V30 61 Ag 5.0526 -1.6463 -4.2998 0
M  V30 62 Fe 5.4166 -2.3832 -2.0681 0
M  V30 63 Ag 5.5329 -3.3429 0.1049 0
M  V30 64 Ag 2.6643 -2.7959 -6.5143 0
M  V30 65 Fe 0.4629 -3.5983 -6.1239 0
M  V30 66 Ag -1.7154 -4.3226 -5.5128 0
M  V30 67 Ag -1.9938 5.2295 -1.3902 0
M  V30 68 Fe -0.0683 6.1746 -0.3721 0
M  V30 69 Ag 1.7785 6.8538 0.9568 0
M  V30 70 Ag -1.0165 -1.3265 4.9187 0
M  V30 71 Fe -1.8054 -3.0660 3.5025 0
M  V30 72 Ag -2.6216 -4.8135 2.1117 0
M  V30 73 Ag 1.2074 1.2999 5.5709 0
M  V30 74 Fe 2.1956 3.2960 4.7508 0
M  V30 75 Ag 3.0227 5.2829 3.7508 0
M  V30 76 Ag 1.4310 6.8957 3.5677 0
M  V30 77 Fe -0.6686 6.3685 4.5471 0
M  V30 78 Ag -2.7926 5.5916 5.2745 0
M  V30 79 Ag -1.0765 -6.5235 1.3179 0
M  V30 80 Fe 1.2741 -6.2698 1.5262 0
M  V30 81 Ag 3.6007 -5.8066 1.5976 0
M  V30 82 Ba -1.9913 2.8992 -0.5532 0
M  V30 83 Ga -0.8081 2.3467 -1.2388 0
M  V30 84 Ba 0.3846 1.7557 -1.8738 0
M  V30 85 Ba -4.0557 -4.0774 -2.9256 0
M  V30 86 Ga -3.9834 -4.4949 -1.5124 0
M  V30 87 Ba -3.8412 -4.9416 -0.1135 0
M  V30 88 Ba -4.2548 3.2876 0.3562 0
M  V30 89 Ga -4.4374 3.3729 1.8392 0
M  V30 90 Ba -4.6380 3.4395 3.3209 0
M  V30 91 Ba -2.6569 -5.8868 -3.6497 0
M  V30 92 Ga -2.5218 -6.3366 -2.2495 0
M  V30 93 Ba -2.3969 -6.7160 -0.8277 0
M  V30 94 Ba -1.3165 0.8962 5.8635 0
M  V30 95 Ga -2.2443 2.0169 5.5950 0
M  V30 96 Ba -3.2590 3.0886 5.4936 0
M  V30 97 Ba 3.6621 -0.4517 -6.1081 0
M  V30 98 Ga 2.9231 0.6760 -5.5055 0
M  V30 99 Ba 2.1754 1.7821 -4.8746 0
M  V30 END ATOM
M  V30 BEGIN BOND
M  V30 1 1 1 2
M  V30 2 1 1 3
M  V30 3 1 1 4
M  V30 4 1 1 5
M  V30 5 1 6 7
M  V30 6 1 6 8
M  V30 7 1 6 9
M  V30 8 1 6 10
M  V30 9 1 11 12
M  V30 10 1 11 13
M  V30 11 1 11 14
M  V30 12 1 11 15
M  V30 13 1 16 17
M  V30 14 1 16 18
M  V30 15 1 16 19
M  V30 16 1 16 20
M  V30 17 1 21 22
M  V30 18 1 21 23
M  V30 19 1 21 24
M  V30 20 1 21 25
M  V30 21 1 26 27
M  V30 22 1 26 28
M  V30 23 1 26 29
M  V30 24 1 26 30
M  V30 25 1 31 32
M  V30 26 1 31 33
M  V30 27 1 31 34
M  V30 28 1 31 35
M  V30 29 1 36 37
M  V30 30 1 36 38
M  V30 31 1 36 39
M  V30 32 1 36 40
M  V30 33 1 41 42
M  V30 34 1 41 43
M  V30 35 1 41 44
M  V30 36 1 41 45
M  V30 37 1 46 47
M  V30 38 1 47 48
M  V30 39 1 49 50
M  V30 40 1 50 51
M  V30 41 1 52 53
M  V30 42 1 53 54
M  V30 43 1 55 56
M  V30 44 1 56 57
M  V30 45 1 58 59
M  V30 46 1 59 60
M  V30 47 1 61 62
M  V30 48 1 62 63
M  V30 49 1 64 65
M  V30 50 1 65 66
M  V30 51 1 67 68
M  V30 52 1 68 69
M  V30 53 1 70 71
M  V30 54 1 71 72
M  V30 55 1 73 74
M  V30 56 1 74 75
M  V30 57 1 76 77
M  V30 58 1 77 78
M  V30 59 1 79 80
M  V30 60 1 80 81
M  V30 61 1 82 83
M  V30 62 1 83 84
M  V30 63 1 85 86
M  V30 64 1 86 87
M  V30 65 1 88 89
M  V30 66 1 89 90
M  V30 67 1 91 92
M  V30 68 1 92 93
M  V30 69 1 94 95
M  V30 70 1 95 96
M  V30 71 1 97 98
M  V30 72 1 98 99
M  V30 73 1 2 46
M  V30 74 1 3 94
M  V30 75 1 4 70
M  V30 76 1 5 73
M  V30 77 1 7 82
M  V30 78 1 8 58
M  V30 79 1 9 67
M  V30 80 1 10 88
M  V30 81 1 12 61
M  V30 82 1 13 97
M  V30 83 1 14 64
M  V30 84 1 15 55
M  V30 85 1 17 66
M  V30 86 1 18 85
M  V30 87 1 19 52
M  V30 88 1 20 91
M  V30 89 1 22 84
M  V30 90 1 23 99
M  V30 91 1 24 54
M  V30 92 1 25 49
M  V30 93 1 27 87
M  V30 94 1 28 79
M  V30 95 1 29 72
M  V30 96 1 30 93
M  V30 97 1 32 48
M  V30 98 1 33 81
M  V30 99 1 34 57
M  V30 100 1 35 63
M  V30 101 1 37 51
M  V30 102 1 38 76
M  V30 103 1 39 69
M  V30 104 1 40 75
M  V30 105 1 42 60
M  V30 106 1 43 96
M  V30 107 1 44 78
M  V30 108 1 45 90
M  V30 END BOND
M  V30 END CTAB
M  END

$$$$
