
     RDKit          3D

  0  0  0  0  0  0  0  0  0  0999 V3000
M  V30 BEGIN CTAB
M  V30 COUNTS 99 108 0 0 0
M  V30 BEGIN ATOM
M  V30 1 Pd -3.5121 1.8104 -0.6829 0
M  V30 2 Pb -3.1227 1.8873 -1.6094 0
M  V30 3 Pb -4.1051 1.0757 -1.0084 0
M  V30 4 Pb -3.1093 2.6771 -0.3839 0
M  V30 5 Pb -3.8460 1.6562 0.2490 0
M  V30 6 Pd -1.0031 4.6586 3.6010 0
M  V30 7 Pb -1.4062 3.7673 3.7892 0
M  V30 8 Pb -0.2865 4.4688 4.2879 0
M  V30 9 Pb -1.5696 4.7960 2.7893 0
M  V30 10 Pb -0.5208 5.5030 3.3918 0
M  V30 11 Pd 3.8039 1.6586 3.8467 0
M  V30 12 Pb 4.2631 0.9492 3.3177 0
M  V30 13 Pb 3.2892 2.3630 4.3629 0
M  V30 14 Pb 4.5354 2.2954 3.5893 0
M  V30 15 Pb 3.0671 1.0217 4.0589 0
M  V30 16 Pd 1.4378 1.5204 -3.4286 0
M  V30 17 Pb 2.4132 1.5518 -3.1947 0
M  V30 18 Pb 1.6143 0.6239 -3.8495 0
M  V30 19 Pb 1.3439 2.4656 -3.1216 0
M  V30 20 Pb 0.4521 1.5182 -3.6334 0
M  V30 21 Pd 2.2711 -3.2838 2.4917 0
M  V30 22 Pb 1.8929 -2.6192 3.1421 0
M  V30 23 Pb 2.5456 -3.8960 1.7542 0
M  V30 24 Pb 3.0573 -2.6992 2.2954 0
M  V30 25 Pb 1.5176 -3.8966 2.7071 0
M  V30 26 Pd 4.4556 4.7096 -0.3862 0
M  V30 27 Pb 3.7046 4.8796 -1.0213 0
M  V30 28 Pb 4.7122 3.9005 -0.9162 0
M  V30 29 Pb 5.1196 4.5037 0.3342 0
M  V30 30 Pb 4.1410 5.4967 0.1355 0
M  V30 31 Pd -5.1592 -4.8267 -3.6382 0
M  V30 32 Pb -5.1581 -4.5922 -4.6046 0
M  V30 33 Pb -5.1725 -4.9945 -2.6539 0
M  V30 34 Pb -4.3615 -5.4316 -3.7938 0
M  V30 35 Pb -5.7837 -4.0801 -3.4440 0
M  V30 36 Pd -2.7135 -2.1524 3.0695 0
M  V30 37 Pb -3.4267 -2.6688 2.5973 0
M  V30 38 Pb -2.2422 -3.0225 3.1773 0
M  V30 39 Pb -3.2111 -1.2848 2.9720 0
M  V30 40 Pb -1.9376 -1.6997 3.5193 0
M  V30 41 Pd 0.4090 -4.1484 -4.7432 0
M  V30 42 Pb 1.0585 -3.3965 -4.8604 0
M  V30 43 Pb -0.3008 -4.8622 -4.5938 0
M  V30 44 Pb -0.0767 -3.8529 -5.5591 0
M  V30 45 Pb 0.9339 -4.4812 -3.9596 0
M  V30 46 Ag -4.9961 -4.3762 -5.2934 0
M  V30 47 Fe -2.8917 -3.8814 -6.2226 0
M  V30 48 Ag -0.5481 -3.6988 -6.1089 0
M  V30 49 Ag -4.6315 0.6089 -1.2679 0
M  V30 50 Fe -5.4439 -1.3939 -2.2447 0
M  V30 51 Ag -6.1088 -3.4511 -3.2190 0
M  V30 52 Ag -0.0613 6.0545 3.1979 0
M  V30 53 Fe 1.9061 6.3112 1.9093 0
M  V30 54 Ag 3.8066 6.0333 0.5278 0
M  V30 55 Ag -5.2415 -5.0183 -1.9082 0
M  V30 56 Fe -4.5903 -4.1076 0.1859 0
M  V30 57 Ag -3.8834 -3.1419 2.2369 0
M  V30 58 Ag 2.6747 -4.3132 1.1479 0
M  V30 59 Fe 2.0577 -4.5810 -1.1283 0
M  V30 60 Ag 1.3494 -4.7345 -3.3886 0
M  V30 61 Ag -1.4983 3.0471 3.9403 0
M  V30 62 Fe 0.1911 1.4184 4.1727 0
M  V30 63 Ag 2.4266 0.6657 4.1843 0
M  V30 64 Ba 3.1450 1.5690 -3.0157 0
M  V30 65 Ga 4.0094 2.4256 -2.1764 0
M  V30 66 Ba 4.8586 3.2930 -1.3327 0
M  V30 67 Ba 1.8771 0.0132 -4.2104 0
M  V30 68 Ga 1.6371 -1.4088 -4.5399 0
M  V30 69 Ba 1.5380 -2.8266 -4.9522 0
M  V30 70 Ba 4.5783 0.4094 2.9087 0
M  V30 71 Ga 4.1323 -0.9400 2.5240 0
M  V30 72 Ba 3.6654 -2.2857 2.1515 0
M  V30 73 Ba -4.0760 1.5152 0.9509 0
M  V30 74 Ga -3.8281 0.4311 1.9271 0
M  V30 75 Ba -3.5983 -0.6386 2.9235 0
M  V30 76 Ba 1.3183 3.1948 -2.9546 0
M  V30 77 Ga 2.1973 4.1034 -2.1986 0
M  V30 78 Ba 3.0919 4.9915 -1.4365 0
M  V30 79 Ba 0.3004 4.3476 4.7577 0
M  V30 80 Ga 1.5811 3.5832 4.7355 0
M  V30 81 Ba 2.8781 2.8484 4.7857 0
M  V30 82 Ba -2.8530 1.8791 -2.3180 0
M  V30 83 Ga -1.5513 1.7290 -3.0168 0
M  V30 84 Ba -0.2871 1.5841 -3.7826 0
M  V30 85 Ba -3.7287 -5.8425 -3.9149 0
M  V30 86 Ga -2.2841 -5.5806 -4.1995 0
M  V30 87 Ba -0.8262 -5.4111 -4.4858 0
M  V30 88 Ba 0.9453 -4.3402 2.8812 0
M  V30 89 Ga -0.4805 -4.0510 3.0720 0
M  V30 90 Ba -1.8882 -3.6751 3.2437 0
M  V30 91 Ba -2.9419 3.3781 -0.1677 0
M  V30 92 Ga -2.4086 4.1072 1.0009 0
M  V30 93 Ba -1.8887 4.9175 2.1212 0
M  V30 94 Ba 1.5470 -2.1154 3.5845 0
M  V30 95 Ga 0.1205 -1.7439 3.7395 0
M  V30 96 Ba -1.3209 -1.4167 3.8507 0
M  V30 97 Ba 5.1005 2.7364 3.3564 0
M  V30 98 Ga 5.3487 3.5516 2.1476 0
M  V30 99 Ba 5.5598 4.3574 0.9255 0
M  V30 END ATOM
M  V30 BEGIN BOND
M  V30 1 1 1 2
M  V30 2 1 1 3
M  V30 3 1 1 4
M  V30 4 1 1 5
M  V30 5 1 6 7
M  V30 6 1 6 8
M  V30 7 1 6 9
M  V30 8 1 6 10
M  V30 9 1 11 12
M  V30 10 1 11 13
M  V30 11 1 11 14
M  V30 12 1 11 15
M  V30 13 1 16 17
M  V30 14 1 16 18
M  V30 15 1 16 19
M  V30 16 1 16 20
M  V30 17 1 21 22
M  V30 18 1 21 23
M  V30 19 1 21 24
M  V30 20 1 21 25
M  V30 21 1 26 27
M  V30 22 1 26 28
M  V30 23 1 26 29
M  V30 24 1 26 30
M  V30 25 1 31 32
M  V30 26 1 31 33
M  V30 27 1 31 34
M  V30 28 1 31 35
M  V30 29 1 36 37
M  V30 30 1 36 38
M  V30 31 1 36 39
M  V30 32 1 36 40
M  V30 33 1 41 42
M  V30 34 1 41 43
M  V30 35 1 41 44
M  V30 36 1 41 45
M  V30 37 1 46 47
M  V30 38 1 47 48
M  V30 39 1 49 50
M  V30 40 1 50 51
M  V30 41 1 52 53
M  V30 42 1 53 54
M  V30 43 1 55 56
M  V30 44 1 56 57
M  V30 45 1 58 59
M  V30 46 1 59 60
M  V30 47 1 61 62
M  V30 48 1 62 63
M  V30 49 1 64 65
M  V30 50 1 65 66
M  V30 51 1 67 68
M  V30 52 1 68 69
M  V30 53 1 70 71
M  V30 54 1 71 72
M  V30 55 1 73 74
M  V30 56 1 74 75
M  V30 57 1 76 77
M  V30 58 1 77 78
M  V30 59 1 79 80
M  V30 60 1 80 81
M  V30 61 1 82 83
M  V30 62 1 83 84
M  V30 63 1 85 86
M  V30 64 1 86 87
M  V30 65 1 88 89
M  V30 66 1 89 90
M  V30 67 1 91 92
M  V30 68 1 92 93
M  V30 69 1 94 95
M  V30 70 1 95 96
M  V30 71 1 97 98
M  V30 72 1 98 99
M  V30 73 1 2 82
M  V30 74 1 3 49
M  V30 75 1 4 91
M  V30 76 1 5 73
M  V30 77 1 7 61
M  V30 78 1 8 79
M  V30 79 1 9 93
M  V30 80 1 10 52
M  V30 81 1 12 70
M  V30 82 1 13 81
M  V30 83 1 14 97
M  V30 84 1 15 63
M  V30 85 1 17 64
M  V30 86 1 18 67
M  V30 87 1 19 76
M  V30 88 1 20 84
M  V30 89 1 22 94
M  V30 90 1 23 58
M  V30 91 1 24 72
M  V30 92 1 25 88
M  V30 93 1 27 78
M  V30 94 1 28 66
M  V30 95 1 29 99
M  V30 96 1 30 54
M  V30 97 1 32 46
M  V30 98 1 33 55
M  V30 99 1 34 85
M  V30 100 1 35 51
M  V30 101 1 37 57
M  V30 102 1 38 90
M  V30 103 1 39 75
M  V30 104 1 40 96
M  V30 105 1 42 69
M  V30 106 1 43 87
M  V30 107 1 44 48
M  V30 108 1 45 60
M  V30 END BOND
M  V30 END CTAB
M  END

$$$$
