
     RDKit          3D

  0  0  0  0  0  0  0  0  0  0999 V3000
M  V30 BEGIN CTAB
M  V30 COUNTS 99 108 0 0 0
M  V30 BEGIN ATOM
M  V30 1 Pd -3.2477 -3.9841 0.9485 0
M  V30 2 Pb -3.3006 -4.1307 1.9322 0
M  V30 3 Pb -3.1816 -3.8380 -0.0416 0
M  V30 4 Pb -2.6729 -4.8010 0.8822 0
M  V30 5 Pb -3.7617 -3.1372 1.0803 0
M  V30 6 Pd -1.7552 2.8466 -7.1307 0
M  V30 7 Pb -1.2993 2.4969 -6.3133 0
M  V30 8 Pb -2.3289 3.1641 -7.8830 0
M  V30 9 Pb -1.8666 3.7115 -6.6462 0
M  V30 10 Pb -1.7910 1.9118 -7.5152 0
M  V30 11 Pd 3.5062 2.9137 4.7302 0
M  V30 12 Pb 3.5361 2.0171 5.2249 0
M  V30 13 Pb 3.4402 3.7635 4.2022 0
M  V30 14 Pb 4.4017 2.7387 4.3217 0
M  V30 15 Pb 2.6371 3.1244 5.1585 0
M  V30 16 Pd 6.8427 -0.7719 -0.5905 0
M  V30 17 Pb 7.2549 -0.1191 0.0381 0
M  V30 18 Pb 7.0202 -1.4983 0.0641 0
M  V30 19 Pb 6.5611 -0.0034 -1.1600 0
M  V30 20 Pb 6.2751 -1.4234 -1.0986 0
M  V30 21 Pd 1.3295 4.1203 -0.0658 0
M  V30 22 Pb 0.8964 3.5476 -0.7617 0
M  V30 23 Pb 1.8065 4.6532 0.6375 0
M  V30 24 Pb 2.1869 3.9439 -0.5484 0
M  V30 25 Pb 0.4605 4.2974 0.4031 0
M  V30 26 Pd 2.1116 -5.3512 2.1108 0
M  V30 27 Pb 3.0455 -5.0834 2.3286 0
M  V30 28 Pb 1.9642 -5.4818 3.0935 0
M  V30 29 Pb 1.2076 -5.7060 1.8501 0
M  V30 30 Pb 2.3357 -5.1462 1.1542 0
M  V30 31 Pd 0.8343 -2.1993 6.5737 0
M  V30 32 Pb -0.0218 -2.7052 6.5422 0
M  V30 33 Pb 1.2843 -3.0617 6.3232 0
M  V30 34 Pb 0.3265 -1.3884 6.8333 0
M  V30 35 Pb 1.6870 -1.6374 6.5270 0
M  V30 36 Pd -4.2916 3.4520 -0.5240 0
M  V30 37 Pb -3.6051 3.8471 0.0896 0
M  V30 38 Pb -4.9774 3.0196 -1.1120 0
M  V30 39 Pb -4.0287 4.1033 -1.2370 0
M  V30 40 Pb -4.5261 2.7472 0.1417 0
M  V30 41 Pd -5.1857 -1.0673 -6.2141 0
M  V30 42 Pb -5.6787 -0.5403 -6.9039 0
M  V30 43 Pb -4.6737 -1.6021 -5.5375 0
M  V30 44 Pb -5.8611 -0.8117 -5.5272 0
M  V30 45 Pb -4.3969 -1.0974 -6.8416 0
M  V30 46 Ag -1.0349 2.2416 -5.6602 0
M  V30 47 Fe -0.1868 2.6776 -3.4850 0
M  V30 48 Ag 0.6605 3.0860 -1.3042 0
M  V30 49 Ag -3.2977 -4.2146 2.6731 0
M  V30 50 Fe -2.0905 -3.7218 4.6502 0
M  V30 51 Ag -0.6585 -3.0710 6.4206 0
M  V30 52 Ag 6.3008 0.6165 -1.4860 0
M  V30 53 Fe 4.5865 2.2471 -1.3011 0
M  V30 54 Ag 2.7991 3.7669 -0.9434 0
M  V30 55 Ag 7.0255 -2.0290 0.5845 0
M  V30 56 Fe 5.5222 -3.5367 1.6194 0
M  V30 57 Ag 3.7623 -4.9016 2.4226 0
M  V30 58 Ag 1.9891 3.1573 5.5098 0
M  V30 59 Fe 0.6249 1.4750 6.4259 0
M  V30 60 Ag 0.0146 -0.7319 6.9633 0
M  V30 61 Ag -2.9028 3.2307 -8.3483 0
M  V30 62 Fe -4.7734 1.7988 -8.3315 0
M  V30 63 Ag -5.8982 -0.0685 -7.4357 0
M  V30 64 Ag 5.7853 -1.9344 -1.3562 0
M  V30 65 Fe 4.1506 -3.4832 -0.5862 0
M  V30 66 Ag 2.5925 -4.9341 0.4776 0
M  V30 67 Ag 5.0723 2.6273 4.0055 0
M  V30 68 Fe 6.3656 1.5574 2.3288 0
M  V30 69 Ag 7.4307 0.3680 0.5745 0
M  V30 70 Ag -2.0238 4.2736 -6.1787 0
M  V30 71 Fe -2.8979 4.5840 -3.9936 0
M  V30 72 Ag -3.7937 4.5469 -1.7952 0
M  V30 73 Ag -4.1057 -2.4939 1.2541 0
M  V30 74 Fe -4.4354 -0.1644 0.9384 0
M  V30 75 Ag -4.7205 2.1624 0.5652 0
M  V30 76 Ag -5.4903 2.6246 -1.4947 0
M  V30 77 Fe -5.9952 1.0667 -3.2151 0
M  V30 78 Ag -6.2690 -0.4812 -4.9952 0
M  V30 79 Ag -3.1057 -3.7514 -0.7856 0
M  V30 80 Fe -3.7360 -2.8489 -2.8937 0
M  V30 81 Ag -4.2663 -2.0136 -5.0563 0
M  V30 82 Ba -0.1702 4.4567 0.7825 0
M  V30 83 Ga -1.6308 4.2803 0.6386 0
M  V30 84 Ba -3.1006 4.1405 0.5638 0
M  V30 85 Ba -1.8654 1.1991 -7.7746 0
M  V30 86 Ga -2.8204 0.0793 -7.5360 0
M  V30 87 Ba -3.7841 -1.0305 -7.2861 0
M  V30 88 Ba 3.6087 1.3425 5.5968 0
M  V30 89 Ga 2.8892 0.0914 6.0131 0
M  V30 90 Ba 2.3316 -1.2129 6.5075 0
M  V30 91 Ba -2.2308 -5.4084 0.8819 0
M  V30 92 Ga -0.8248 -5.6844 1.2523 0
M  V30 93 Ba 0.5694 -6.0300 1.6075 0
M  V30 94 Ba 1.9610 -5.5420 3.8443 0
M  V30 95 Ga 1.7314 -4.6307 4.9890 0
M  V30 96 Ba 1.5175 -3.7636 6.1703 0
M  V30 97 Ba 3.3754 4.3910 3.7918 0
M  V30 98 Ga 2.7730 4.7176 2.4810 0
M  V30 99 Ba 2.1701 5.0425 1.1700 0
M  V30 END ATOM
M  V30 BEGIN BOND
M  V30 1 1 1 2
M  V30 2 1 1 3
M  V30 3 1 1 4
M  V30 4 1 1 5
M  V30 5 1 6 7
M  V30 6 1 6 8
M  V30 7 1 6 9
M  V30 8 1 6 10
M  V30 9 1 11 12
M  V30 10 1 11 13
M  V30 11 1 11 14
M  V30 12 1 11 15
M  V30 13 1 16 17
M  V30 14 1 16 18
M  V30 15 1 16 19
M  V30 16 1 16 20
M  V30 17 1 21 22
M  V30 18 1 21 23
M  V30 19 1 21 24
M  V30 20 1 21 25
M  V30 21 1 26 27
M  V30 22 1 26 28
M  V30 23 1 26 29
M  V30 24 1 26 30
M  V30 25 1 31 32
M  V30 26 1 31 33
M  V30 27 1 31 34
M  V30 28 1 31 35
M  V30 29 1 36 37
M  V30 30 1 36 38
M  V30 31 1 36 39
M  V30 32 1 36 40
M  V30 33 1 41 42
M  V30 34 1 41 43
M  V30 35 1 41 44
M  V30 36 1 41 45
M  V30 37 1 46 47
M  V30 38 1 47 48
M  V30 39 1 49 50
M  V30 40 1 50 51
M  V30 41 1 52 53
M  V30 42 1 53 54
M  V30 43 1 55 56
M  V30 44 1 56 57
M  V30 45 1 58 59
M  V30 46 1 59 60
M  V30 47 1 61 62
M  V30 48 1 62 63
M  V30 49 1 64 65
M  V30 50 1 65 66
M  V30 51 1 67 68
M  V30 52 1 68 69
M  V30 53 1 70 71
M  V30 54 1 71 72
M  V30 55 1 73 74
M  V30 56 1 74 75
M  V30 57 1 76 77
M  V30 58 1 77 78
M  V30 59 1 79 80
M  V30 60 1 80 81
M  V30 61 1 82 83
M  V30 62 1 83 84
M  V30 63 1 85 86
M  V30 64 1 86 87
M  V30 65 1 88 89
M  V30 66 1 89 90
M  V30 67 1 91 92
M  V30 68 1 92 93
M  V30 69 1 94 95
M  V30 70 1 95 96
M  V30 71 1 97 98
M  V30 72 1 98 99
M  V30 73 1 2 49
M  V30 74 1 3 79
M  V30 75 1 4 91
M  V30 76 1 5 73
M  V30 77 1 7 46
M  V30 78 1 8 61
M  V30 79 1 9 70
M  V30 80 1 10 85
M  V30 81 1 12 88
M  V30 82 1 13 97
M  V30 83 1 14 67
M  V30 84 1 15 58
M  V30 85 1 17 69
M  V30 86 1 18 55
M  V30 87 1 19 52
M  V30 88 1 20 64
M  V30 89 1 22 48
M  V30 90 1 23 99
M  V30 91 1 24 54
M  V30 92 1 25 82
M  V30 93 1 27 57
M  V30 94 1 28 94
M  V30 95 1 29 93
M  V30 96 1 30 66
M  V30 97 1 32 51
M  V30 98 1 33 96
M  V30 99 1 34 60
M  V30 100 1 35 90
M  V30 101 1 37 84
M  V30 102 1 38 76
M  V30 103 1 39 72
M  V30 104 1 40 75
M  V30 105 1 42 63
M  V30 106 1 43 81
M  V30 107 1 44 78
M  V30 108 1 45 87
M  V30 END BOND
M  V30 END CTAB
M  END

$$$$
