
     RDKit          3D

  0  0  0  0  0  0  0  0  0  0999 V3000
M  V30 BEGIN CTAB
M  V30 COUNTS 99 108 0 0 0
M  V30 BEGIN ATOM
M  V30 1 Pd -2.7816 2.8442 1.2378 0
M  V30 2 Pb -3.4549 2.6007 1.9425 0
M  V30 3 Pb -2.1128 3.1049 0.5418 0
M  V30 4 Pb -3.4191 3.4429 0.7478 0
M  V30 5 Pb -2.1113 2.2831 1.7281 0
M  V30 6 Pd 8.3180 1.8343 0.4193 0
M  V30 7 Pb 8.2056 0.8775 0.1464 0
M  V30 8 Pb 8.1200 2.1359 -0.5163 0
M  V30 9 Pb 8.3776 1.6146 1.3946 0
M  V30 10 Pb 8.4197 2.7970 0.6526 0
M  V30 11 Pd -3.6298 -5.3772 0.4280 0
M  V30 12 Pb -3.6387 -4.9474 1.3327 0
M  V30 13 Pb -2.6987 -5.7004 0.5910 0
M  V30 14 Pb -3.6021 -5.7905 -0.4857 0
M  V30 15 Pb -4.5757 -5.0796 0.2959 0
M  V30 16 Pd -2.1418 -3.5897 -4.3757 0
M  V30 17 Pb -2.4293 -4.5036 -4.0848 0
M  V30 18 Pb -3.0937 -3.3198 -4.4935 0
M  V30 19 Pb -1.1790 -3.8564 -4.3026 0
M  V30 20 Pb -1.9066 -2.6372 -4.5903 0
M  V30 21 Pd 4.1230 -4.6933 -0.1201 0
M  V30 22 Pb 4.9361 -4.1859 -0.4067 0
M  V30 23 Pb 3.3181 -5.1977 0.1877 0
M  V30 24 Pb 3.7998 -4.7850 -1.0612 0
M  V30 25 Pb 4.3889 -4.5211 0.8248 0
M  V30 26 Pd -5.7079 2.5367 -3.2859 0
M  V30 27 Pb -5.9847 1.6970 -3.7441 0
M  V30 28 Pb -6.5631 2.5334 -2.7776 0
M  V30 29 Pb -5.4198 3.3156 -2.7289 0
M  V30 30 Pb -4.8079 2.4114 -3.7103 0
M  V30 31 Pd -6.3023 -1.2553 2.4034 0
M  V30 32 Pb -5.9724 -0.4437 2.8902 0
M  V30 33 Pb -6.9787 -0.6786 1.9519 0
M  V30 34 Pb -6.6009 -2.0367 1.8545 0
M  V30 35 Pb -5.6132 -1.8391 2.8330 0
M  V30 36 Pd 4.4154 1.3578 4.0510 0
M  V30 37 Pb 4.5940 0.3778 4.1144 0
M  V30 38 Pb 4.2006 2.3347 3.9781 0
M  V30 39 Pb 5.4096 1.4973 4.0942 0
M  V30 40 Pb 3.4353 1.1664 3.9653 0
M  V30 41 Pd 3.7039 6.4696 -0.8968 0
M  V30 42 Pb 4.1921 6.1298 -1.7003 0
M  V30 43 Pb 2.8520 6.0519 -1.2081 0
M  V30 44 Pb 3.3382 6.5789 0.0239 0
M  V30 45 Pb 4.5804 6.7757 -0.5401 0
M  V30 46 Ag 8.1172 0.1767 -0.1099 0
M  V30 47 Fe 6.8386 -1.8128 -0.3404 0
M  V30 48 Ag 5.5604 -3.8027 -0.5696 0
M  V30 49 Ag 4.5671 -4.3051 1.5166 0
M  V30 50 Fe 4.6840 -2.3967 2.9194 0
M  V30 51 Ag 4.7209 -0.3592 4.1323 0
M  V30 52 Ag -0.4592 -4.0699 -4.2673 0
M  V30 53 Fe 1.5358 -4.4569 -3.0368 0
M  V30 54 Ag 3.4963 -4.8212 -1.7454 0
M  V30 55 Ag -3.7781 -3.0435 -4.6035 0
M  V30 56 Fe -5.0890 -1.0819 -4.3830 0
M  V30 57 Ag -6.1215 1.0207 -4.0265 0
M  V30 58 Ag 8.4207 3.5342 0.7580 0
M  V30 59 Fe 7.0207 5.3994 0.3608 0
M  V30 60 Ag 5.2579 6.8557 -0.2453 0
M  V30 61 Ag 7.8829 2.4529 -1.1568 0
M  V30 62 Fe 6.3214 4.0840 -1.9021 0
M  V30 63 Ag 4.6491 5.7538 -2.1619 0
M  V30 64 Ag -1.8222 -1.8966 -4.7092 0
M  V30 65 Fe -2.8763 0.2182 -4.4190 0
M  V30 66 Ag -4.1523 2.1849 -4.0053 0
M  V30 67 Ag -1.6249 1.8685 2.1250 0
M  V30 68 Fe 0.5508 1.4567 2.9906 0
M  V30 69 Ag 2.7070 0.9982 3.8812 0
M  V30 70 Ag 3.9613 3.0444 3.8982 0
M  V30 71 Fe 3.5156 4.8659 2.4386 0
M  V30 72 Ag 3.1948 6.5109 0.7546 0
M  V30 73 Ag -1.6567 3.3483 -0.0016 0
M  V30 74 Fe 0.2844 4.5128 -0.7182 0
M  V30 75 Ag 2.2335 5.6803 -1.4081 0
M  V30 76 Ag -7.1300 2.4283 -2.3077 0
M  V30 77 Fe -7.5131 1.1719 -0.3377 0
M  V30 78 Ag -7.4352 -0.2268 1.5717 0
M  V30 79 Ag -2.0084 -5.9585 0.7249 0
M  V30 80 Fe 0.3514 -5.7597 0.5663 0
M  V30 81 Ag 2.7130 -5.5748 0.4154 0
M  V30 82 Ba -3.9226 2.4145 2.5047 0
M  V30 83 Ga -4.8290 1.2959 2.8474 0
M  V30 84 Ba -5.7437 0.1933 3.2191 0
M  V30 85 Ba -5.2908 -4.8591 0.2385 0
M  V30 86 Ga -6.0596 -3.7406 0.8178 0
M  V30 87 Ba -6.7989 -2.6106 1.4133 0
M  V30 88 Ba -3.6439 -4.6126 2.0056 0
M  V30 89 Ga -4.3644 -3.4596 2.5811 0
M  V30 90 Ba -5.1011 -2.3023 3.1264 0
M  V30 91 Ba -3.5537 -6.1037 -1.1691 0
M  V30 92 Ga -3.1158 -5.6449 -2.5046 0
M  V30 93 Ba -2.6746 -5.1676 -3.8325 0
M  V30 94 Ba 8.3672 1.5416 2.1435 0
M  V30 95 Ga 7.2702 1.5230 3.1384 0
M  V30 96 Ba 6.1645 1.5077 4.1236 0
M  V30 97 Ba -3.8235 3.9298 0.3402 0
M  V30 98 Ga -4.5410 3.8997 -0.9513 0
M  V30 99 Ba -5.2592 3.8640 -2.2423 0
M  V30 END ATOM
M  V30 BEGIN BOND
M  V30 1 1 1 2
M  V30 2 1 1 3
M  V30 3 1 1 4
M  V30 4 1 1 5
M  V30 5 1 6 7
M  V30 6 1 6 8
M  V30 7 1 6 9
M  V30 8 1 6 10
M  V30 9 1 11 12
M  V30 10 1 11 13
M  V30 11 1 11 14
M  V30 12 1 11 15
M  V30 13 1 16 17
M  V30 14 1 16 18
M  V30 15 1 16 19
M  V30 16 1 16 20
M  V30 17 1 21 22
M  V30 18 1 21 23
M  V30 19 1 21 24
M  V30 20 1 21 25
M  V30 21 1 26 27
M  V30 22 1 26 28
M  V30 23 1 26 29
M  V30 24 1 26 30
M  V30 25 1 31 32
M  V30 26 1 31 33
M  V30 27 1 31 34
M  V30 28 1 31 35
M  V30 29 1 36 37
M  V30 30 1 36 38
M  V30 31 1 36 39
M  V30 32 1 36 40
M  V30 33 1 41 42
M  V30 34 1 41 43
M  V30 35 1 41 44
M  V30 36 1 41 45
M  V30 37 1 46 47
M  V30 38 1 47 48
M  V30 39 1 49 50
M  V30 40 1 50 51
M  V30 41 1 52 53
M  V30 42 1 53 54
M  V30 43 1 55 56
M  V30 44 1 56 57
M  V30 45 1 58 59
M  V30 46 1 59 60
M  V30 47 1 61 62
M  V30 48 1 62 63
M  V30 49 1 64 65
M  V30 50 1 65 66
M  V30 51 1 67 68
M  V30 52 1 68 69
M  V30 53 1 70 71
M  V30 54 1 71 72
M  V30 55 1 73 74
M  V30 56 1 74 75
M  V30 57 1 76 77
M  V30 58 1 77 78
M  V30 59 1 79 80
M  V30 60 1 80 81
M  V30 61 1 82 83
M  V30 62 1 83 84
M  V30 63 1 85 86
M  V30 64 1 86 87
M  V30 65 1 88 89
M  V30 66 1 89 90
M  V30 67 1 91 92
M  V30 68 1 92 93
M  V30 69 1 94 95
M  V30 70 1 95 96
M  V30 71 1 97 98
M  V30 72 1 98 99
M  V30 73 1 2 82
M  V30 74 1 3 73
M  V30 75 1 4 97
M  V30 76 1 5 67
M  V30 77 1 7 46
M  V30 78 1 8 61
M  V30 79 1 9 94
M  V30 80 1 10 58
M  V30 81 1 12 88
M  V30 82 1 13 79
M  V30 83 1 14 91
M  V30 84 1 15 85
M  V30 85 1 17 93
M  V30 86 1 18 55
M  V30 87 1 19 52
M  V30 88 1 20 64
M  V30 89 1 22 48
M  V30 90 1 23 81
M  V30 91 1 24 54
M  V30 92 1 25 49
M  V30 93 1 27 57
M  V30 94 1 28 76
M  V30 95 1 29 99
M  V30 96 1 30 66
M  V30 97 1 32 84
M  V30 98 1 33 78
M  V30 99 1 34 87
M  V30 100 1 35 90
M  V30 101 1 37 51
M  V30 102 1 38 70
M  V30 103 1 39 96
M  V30 104 1 40 69
M  V30 105 1 42 63
M  V30 106 1 43 75
M  V30 107 1 44 72
M  V30 108 1 45 60
M  V30 END BOND
M  V30 END CTAB
M  END

$$$$
