
     RDKit          3D

  0  0  0  0  0  0  0  0  0  0999 V3000
M  V30 BEGIN CTAB
M  V30 COUNTS 99 108 0 0 0
M  V30 BEGIN ATOM
M  V30 1 Pd 3.1073 -1.5267 5.7094 0
M  V30 2 Pb 3.6828 -0.7690 5.3954 0
M  V30 3 Pb 2.4661 -2.2374 5.9757 0
M  V30 4 Pb 2.7093 -0.9445 6.4148 0
M  V30 5 Pb 3.4115 -2.1485 4.9807 0
M  V30 6 Pd -1.8246 4.0798 6.6818 0
M  V30 7 Pb -2.2462 4.8211 6.1670 0
M  V30 8 Pb -0.9779 4.6282 6.7517 0
M  V30 9 Pb -1.3474 3.3586 7.1788 0
M  V30 10 Pb -2.6042 3.4820 6.4904 0
M  V30 11 Pd -4.4506 -0.0225 0.9102 0
M  V30 12 Pb -4.5985 0.2388 1.8673 0
M  V30 13 Pb -4.2998 0.9525 0.7143 0
M  V30 14 Pb -4.5903 -0.9920 1.1232 0
M  V30 15 Pb -4.3074 -0.3300 -0.0370 0
M  V30 16 Pd 2.8833 -1.7125 -5.3408 0
M  V30 17 Pb 3.3202 -2.1936 -6.0981 0
M  V30 18 Pb 2.0006 -1.9476 -5.7608 0
M  V30 19 Pb 3.7560 -1.7592 -4.8517 0
M  V30 20 Pb 2.4314 -1.2824 -4.5601 0
M  V30 21 Pd -2.0403 0.5032 -4.3178 0
M  V30 22 Pb -2.8756 0.7679 -4.7951 0
M  V30 23 Pb -1.2089 0.2784 -3.8095 0
M  V30 24 Pb -1.5531 1.2683 -4.7689 0
M  V30 25 Pb -2.5671 -0.1644 -3.7921 0
M  V30 26 Pd -1.5594 5.5673 -3.0654 0
M  V30 27 Pb -1.1556 5.1752 -3.8981 0
M  V30 28 Pb -2.4377 5.6250 -3.5350 0
M  V30 29 Pb -2.0317 5.6471 -2.1909 0
M  V30 30 Pb -0.6685 5.5126 -2.6125 0
M  V30 31 Pd 2.4780 5.6348 3.3555 0
M  V30 32 Pb 2.6462 5.5554 2.3750 0
M  V30 33 Pb 3.1421 4.9098 3.5541 0
M  V30 34 Pb 1.7748 6.3119 3.1568 0
M  V30 35 Pb 2.2098 5.6864 4.3297 0
M  V30 36 Pd 2.0921 -6.3075 -5.6908 0
M  V30 37 Pb 1.3501 -5.7322 -6.0506 0
M  V30 38 Pb 2.6865 -5.8882 -6.3744 0
M  V30 39 Pb 2.9159 -6.6283 -5.2202 0
M  V30 40 Pb 1.4960 -6.6824 -4.9815 0
M  V30 41 Pd -0.5691 -6.1473 1.6782 0
M  V30 42 Pb -0.5930 -5.8886 2.6380 0
M  V30 43 Pb -0.5394 -6.4668 0.7303 0
M  V30 44 Pb 0.4283 -6.0533 1.7355 0
M  V30 45 Pb -1.5607 -6.0359 1.6343 0
M  V30 46 Ag -2.3814 5.3975 5.7201 0
M  V30 47 Fe -0.9150 6.4522 4.2055 0
M  V30 48 Ag 1.1526 6.7134 3.1034 0
M  V30 49 Ag 1.0434 -6.9412 -4.4431 0
M  V30 50 Fe 0.2675 -6.8290 -2.2010 0
M  V30 51 Ag -0.5340 -6.7460 0.0334 0
M  V30 52 Ag 0.0098 5.4722 -2.2929 0
M  V30 53 Fe 1.3930 5.4802 -0.3627 0
M  V30 54 Ag 2.6845 5.5007 1.6298 0
M  V30 55 Ag -4.6659 -1.7323 1.2339 0
M  V30 56 Fe -3.5810 -3.8363 1.4424 0
M  V30 57 Ag -2.2761 -5.8133 1.6275 0
M  V30 58 Ag 2.3341 -0.5421 6.9210 0
M  V30 59 Fe 0.7139 1.1491 7.2980 0
M  V30 60 Ag -0.9160 2.8574 7.5276 0
M  V30 61 Ag 4.0593 -0.1618 5.1601 0
M  V30 62 Fe 3.8978 2.0943 4.4256 0
M  V30 63 Ag 3.6143 4.3426 3.7043 0
M  V30 64 Ag -3.4527 1.1452 -5.0685 0
M  V30 65 Fe -3.8175 3.4538 -4.7990 0
M  V30 66 Ag -3.0608 5.5012 -3.9193 0
M  V30 67 Ag 1.9473 -2.7585 6.0820 0
M  V30 68 Fe 0.6148 -4.2900 4.8663 0
M  V30 69 Ag -0.5428 -5.6950 3.3547 0
M  V30 70 Ag -3.1512 3.0166 6.2704 0
M  V30 71 Fe -3.9773 1.7135 4.4614 0
M  V30 72 Ag -4.7038 0.4508 2.5823 0
M  V30 73 Ag -4.1908 1.6981 0.6493 0
M  V30 74 Fe -3.3329 3.6526 -0.4017 0
M  V30 75 Ag -2.4219 5.5168 -1.5652 0
M  V30 76 Ag 4.3363 -2.0925 -4.5193 0
M  V30 77 Fe 4.5087 -4.4467 -4.3723 0
M  V30 78 Ag 3.5651 -6.5606 -4.8567 0
M  V30 79 Ag 3.5392 -2.6757 4.4545 0
M  V30 80 Fe 2.4706 -4.3094 3.0894 0
M  V30 81 Ag 1.1467 -5.8496 1.8450 0
M  V30 82 Ba 3.6132 -2.6218 -6.6364 0
M  V30 83 Ga 3.4246 -4.0681 -6.8255 0
M  V30 84 Ba 3.1188 -5.5065 -6.8505 0
M  V30 85 Ba -4.2318 -0.6840 -0.7015 0
M  V30 86 Ga -3.5896 -0.6041 -2.0319 0
M  V30 87 Ba -2.9988 -0.6265 -3.3886 0
M  V30 88 Ba -1.2038 1.8643 -5.0936 0
M  V30 89 Ga -1.0422 3.3162 -4.7982 0
M  V30 90 Ba -0.8955 4.7647 -4.4794 0
M  V30 91 Ba 1.3793 -2.2651 -6.0561 0
M  V30 92 Ga 1.0596 -3.7113 -6.2012 0
M  V30 93 Ba 0.8776 -5.1862 -6.2802 0
M  V30 94 Ba 2.0860 -0.9853 -3.9651 0
M  V30 95 Ga 0.7486 -0.4229 -3.7013 0
M  V30 96 Ba -0.5836 0.1426 -3.4180 0
M  V30 97 Ba -0.3184 5.0065 6.7950 0
M  V30 98 Ga 0.8151 5.3626 5.8952 0
M  V30 99 Ba 1.9816 5.7525 5.0536 0
M  V30 END ATOM
M  V30 BEGIN BOND
M  V30 1 1 1 2
M  V30 2 1 1 3
M  V30 3 1 1 4
M  V30 4 1 1 5
M  V30 5 1 6 7
M  V30 6 1 6 8
M  V30 7 1 6 9
M  V30 8 1 6 10
M  V30 9 1 11 12
M  V30 10 1 11 13
M  V30 11 1 11 14
M  V30 12 1 11 15
M  V30 13 1 16 17
M  V30 14 1 16 18
M  V30 15 1 16 19
M  V30 16 1 16 20
M  V30 17 1 21 22
M  V30 18 1 21 23
M  V30 19 1 21 24
M  V30 20 1 21 25
M  V30 21 1 26 27
M  V30 22 1 26 28
M  V30 23 1 26 29
M  V30 24 1 26 30
M  V30 25 1 31 32
M  V30 26 1 31 33
M  V30 27 1 31 34
M  V30 28 1 31 35
M  V30 29 1 36 37
M  V30 30 1 36 38
M  V30 31 1 36 39
M  V30 32 1 36 40
M  V30 33 1 41 42
M  V30 34 1 41 43
M  V30 35 1 41 44
M  V30 36 1 41 45
M  V30 37 1 46 47
M  V30 38 1 47 48
M  V30 39 1 49 50
M  V30 40 1 50 51
M  V30 41 1 52 53
M  V30 42 1 53 54
M  V30 43 1 55 56
M  V30 44 1 56 57
M  V30 45 1 58 59
M  V30 46 1 59 60
M  V30 47 1 61 62
M  V30 48 1 62 63
M  V30 49 1 64 65
M  V30 50 1 65 66
M  V30 51 1 67 68
M  V30 52 1 68 69
M  V30 53 1 70 71
M  V30 54 1 71 72
M  V30 55 1 73 74
M  V30 56 1 74 75
M  V30 57 1 76 77
M  V30 58 1 77 78
M  V30 59 1 79 80
M  V30 60 1 80 81
M  V30 61 1 82 83
M  V30 62 1 83 84
M  V30 63 1 85 86
M  V30 64 1 86 87
M  V30 65 1 88 89
M  V30 66 1 89 90
M  V30 67 1 91 92
M  V30 68 1 92 93
M  V30 69 1 94 95
M  V30 70 1 95 96
M  V30 71 1 97 98
M  V30 72 1 98 99
M  V30 73 1 2 61
M  V30 74 1 3 67
M  V30 75 1 4 58
M  V30 76 1 5 79
M  V30 77 1 7 46
M  V30 78 1 8 97
M  V30 79 1 9 60
M  V30 80 1 10 70
M  V30 81 1 12 72
M  V30 82 1 13 73
M  V30 83 1 14 55
M  V30 84 1 15 85
M  V30 85 1 17 82
M  V30 86 1 18 91
M  V30 87 1 19 76
M  V30 88 1 20 94
M  V30 89 1 22 64
M  V30 90 1 23 96
M  V30 91 1 24 88
M  V30 92 1 25 87
M  V30 93 1 27 90
M  V30 94 1 28 66
M  V30 95 1 29 75
M  V30 96 1 30 52
M  V30 97 1 32 54
M  V30 98 1 33 63
M  V30 99 1 34 48
M  V30 100 1 35 99
M  V30 101 1 37 93
M  V30 102 1 38 84
M  V30 103 1 39 78
M  V30 104 1 40 49
M  V30 105 1 42 69
M  V30 106 1 43 51
M  V30 107 1 44 81
M  V30 108 1 45 57
M  V30 END BOND
M  V30 END CTAB
M  END

$$$$
