
     RDKit          3D

  0  0  0  0  0  0  0  0  0  0999 V3000
M  V30 BEGIN CTAB
M  V30 COUNTS 99 108 0 0 0
M  V30 BEGIN ATOM
M  V30 1 Pd 2.4295 -0.3007 -3.7522 0
M  V30 2 Pb 3.0714 -0.9287 -3.3045 0
M  V30 3 Pb 3.1402 0.3923 -3.7227 0
M  V30 4 Pb 1.7258 -1.0135 -3.8131 0
M  V30 5 Pb 1.8330 0.4382 -4.0633 0
M  V30 6 Pd -3.2646 -1.8723 -4.2082 0
M  V30 7 Pb -4.2392 -1.6832 -4.2256 0
M  V30 8 Pb -3.1368 -1.0350 -3.6703 0
M  V30 9 Pb -2.2936 -2.1206 -4.1573 0
M  V30 10 Pb -3.5009 -2.7557 -4.6130 0
M  V30 11 Pd -5.5828 -1.5079 -0.0170 0
M  V30 12 Pb -5.2493 -1.3596 0.9127 0
M  V30 13 Pb -5.0938 -0.7018 -0.3609 0
M  V30 14 Pb -5.9113 -2.4135 0.2430 0
M  V30 15 Pb -6.0202 -1.5850 -0.9081 0
M  V30 16 Pd 2.2095 -3.8788 0.1302 0
M  V30 17 Pb 2.2190 -4.2909 -0.7683 0
M  V30 18 Pb 2.2762 -3.5249 1.0689 0
M  V30 19 Pb 1.3338 -4.3624 0.3580 0
M  V30 20 Pb 3.0250 -3.3980 -0.1839 0
M  V30 21 Pd -2.5492 3.6026 4.4288 0
M  V30 22 Pb -1.9924 4.4028 4.1330 0
M  V30 23 Pb -1.8218 3.2579 5.0164 0
M  V30 24 Pb -3.0288 2.7417 4.5780 0
M  V30 25 Pb -3.2776 3.8857 3.8160 0
M  V30 26 Pd -3.2305 -5.8671 -1.5922 0
M  V30 27 Pb -2.5431 -5.7929 -0.8366 0
M  V30 28 Pb -2.5169 -6.1161 -2.2294 0
M  V30 29 Pb -3.9965 -5.6559 -0.9756 0
M  V30 30 Pb -3.8124 -5.8452 -2.4028 0
M  V30 31 Pd 5.6301 4.0051 1.1789 0
M  V30 32 Pb 6.0510 3.1004 1.2821 0
M  V30 33 Pb 5.1291 4.8622 1.0500 0
M  V30 34 Pb 5.5607 4.0660 2.1706 0
M  V30 35 Pb 5.7028 3.9105 0.1937 0
M  V30 36 Pd 0.3245 5.7220 -0.1881 0
M  V30 37 Pb 1.2874 5.9539 -0.0080 0
M  V30 38 Pb -0.6419 5.6124 -0.3863 0
M  V30 39 Pb 0.4928 5.4036 -1.1245 0
M  V30 40 Pb 0.0884 5.9216 0.7836 0
M  V30 41 Pd 4.0783 0.1695 4.1108 0
M  V30 42 Pb 3.6662 -0.7173 3.8771 0
M  V30 43 Pb 4.4502 1.0609 4.3669 0
M  V30 44 Pb 4.8160 0.0773 3.4421 0
M  V30 45 Pb 3.3472 0.3443 4.7644 0
M  V30 46 Ag 2.1507 -4.6356 -1.4145 0
M  V30 47 Fe 0.3235 -5.6327 -2.4968 0
M  V30 48 Ag -1.9371 -6.2370 -2.6655 0
M  V30 49 Ag 3.6539 0.9268 -3.6766 0
M  V30 50 Fe 4.7716 2.4142 -2.2167 0
M  V30 51 Ag 5.7238 3.7783 -0.5359 0
M  V30 52 Ag -5.0694 -1.2065 1.6236 0
M  V30 53 Fe -4.2193 0.3650 3.1849 0
M  V30 54 Ag -3.3335 2.0598 4.5892 0
M  V30 55 Ag 1.5037 1.0998 -4.1961 0
M  V30 56 Fe 0.9582 3.1390 -3.0999 0
M  V30 57 Ag 0.5044 5.0837 -1.8074 0
M  V30 58 Ag -1.2970 2.9212 5.4272 0
M  V30 59 Fe 0.7535 1.7313 5.4207 0
M  V30 60 Ag 2.8091 0.5654 5.2319 0
M  V30 61 Ag -3.6957 4.0924 3.2438 0
M  V30 62 Fe -3.0059 4.8864 1.1410 0
M  V30 63 Ag -1.3776 5.5462 -0.4228 0
M  V30 64 Ba 6.3189 2.3996 1.3484 0
M  V30 65 Ga 5.8833 1.2248 2.1323 0
M  V30 66 Ba 5.3831 0.1008 2.9512 0
M  V30 67 Ba 2.3230 -3.3425 1.8002 0
M  V30 68 Ga 2.8501 -2.3080 2.7200 0
M  V30 69 Ba 3.3110 -1.3758 3.7748 0
M  V30 70 Ba 0.6836 -4.7335 0.5602 0
M  V30 71 Ga -0.6576 -5.2018 0.0648 0
M  V30 72 Ba -2.0249 -5.7366 -0.2642 0
M  V30 73 Ba -3.7863 -3.4191 -4.8189 0
M  V30 74 Ga -3.9917 -4.6389 -4.0138 0
M  V30 75 Ba -4.1144 -5.7791 -3.0851 0
M  V30 76 Ba 4.7374 5.4897 0.9180 0
M  V30 77 Ga 3.3437 5.8083 0.5329 0
M  V30 78 Ba 1.9767 6.2254 0.1468 0
M  V30 79 Ba -3.1417 -0.4365 -3.2109 0
M  V30 80 Ga -3.8793 -0.2380 -1.9401 0
M  V30 81 Ba -4.6662 -0.1714 -0.6853 0
M  V30 82 Ba -4.9749 -1.6049 -4.1656 0
M  V30 83 Ga -5.7408 -1.5839 -2.9175 0
M  V30 84 Ba -6.3412 -1.5787 -1.5813 0
M  V30 85 Ba 3.5924 -1.3000 -2.9048 0
M  V30 86 Ga 3.6128 -2.1880 -1.7236 0
M  V30 87 Ba 3.5984 -3.0808 -0.5460 0
M  V30 88 Ba 5.5189 4.0370 2.9147 0
M  V30 89 Ga 5.1154 2.9171 3.7792 0
M  V30 90 Ba 4.6960 1.7421 4.5591 0
M  V30 91 Ba 1.2513 -1.5962 -3.8663 0
M  V30 92 Ga -0.1894 -1.9080 -3.9888 0
M  V30 93 Ba -1.5866 -2.3772 -4.1129 0
M  V30 94 Ba -1.5683 4.9982 3.8939 0
M  V30 95 Ga -0.8474 5.4840 2.6723 0
M  V30 96 Ba -0.0935 6.0705 1.5167 0
M  V30 97 Ba -6.0597 -3.1311 0.3960 0
M  V30 98 Ga -5.3429 -4.3441 -0.0523 0
M  V30 99 Ba -4.5909 -5.5254 -0.5273 0
M  V30 END ATOM
M  V30 BEGIN BOND
M  V30 1 1 1 2
M  V30 2 1 1 3
M  V30 3 1 1 4
M  V30 4 1 1 5
M  V30 5 1 6 7
M  V30 6 1 6 8
M  V30 7 1 6 9
M  V30 8 1 6 10
M  V30 9 1 11 12
M  V30 10 1 11 13
M  V30 11 1 11 14
M  V30 12 1 11 15
M  V30 13 1 16 17
M  V30 14 1 16 18
M  V30 15 1 16 19
M  V30 16 1 16 20
M  V30 17 1 21 22
M  V30 18 1 21 23
M  V30 19 1 21 24
M  V30 20 1 21 25
M  V30 21 1 26 27
M  V30 22 1 26 28
M  V30 23 1 26 29
M  V30 24 1 26 30
M  V30 25 1 31 32
M  V30 26 1 31 33
M  V30 27 1 31 34
M  V30 28 1 31 35
M  V30 29 1 36 37
M  V30 30 1 36 38
M  V30 31 1 36 39
M  V30 32 1 36 40
M  V30 33 1 41 42
M  V30 34 1 41 43
M  V30 35 1 41 44
M  V30 36 1 41 45
M  V30 37 1 46 47
M  V30 38 1 47 48
M  V30 39 1 49 50
M  V30 40 1 50 51
M  V30 41 1 52 53
M  V30 42 1 53 54
M  V30 43 1 55 56
M  V30 44 1 56 57
M  V30 45 1 58 59
M  V30 46 1 59 60
M  V30 47 1 61 62
M  V30 48 1 62 63
M  V30 49 1 64 65
M  V30 50 1 65 66
M  V30 51 1 67 68
M  V30 52 1 68 69
M  V30 53 1 70 71
M  V30 54 1 71 72
M  V30 55 1 73 74
M  V30 56 1 74 75
M  V30 57 1 76 77
M  V30 58 1 77 78
M  V30 59 1 79 80
M  V30 60 1 80 81
M  V30 61 1 82 83
M  V30 62 1 83 84
M  V30 63 1 85 86
M  V30 64 1 86 87
M  V30 65 1 88 89
M  V30 66 1 89 90
M  V30 67 1 91 92
M  V30 68 1 92 93
M  V30 69 1 94 95
M  V30 70 1 95 96
M  V30 71 1 97 98
M  V30 72 1 98 99
M  V30 73 1 2 85
M  V30 74 1 3 49
M  V30 75 1 4 91
M  V30 76 1 5 55
M  V30 77 1 7 82
M  V30 78 1 8 79
M  V30 79 1 9 93
M  V30 80 1 10 73
M  V30 81 1 12 52
M  V30 82 1 13 81
M  V30 83 1 14 97
M  V30 84 1 15 84
M  V30 85 1 17 46
M  V30 86 1 18 67
M  V30 87 1 19 70
M  V30 88 1 20 87
M  V30 89 1 22 94
M  V30 90 1 23 58
M  V30 91 1 24 54
M  V30 92 1 25 61
M  V30 93 1 27 72
M  V30 94 1 28 48
M  V30 95 1 29 99
M  V30 96 1 30 75
M  V30 97 1 32 64
M  V30 98 1 33 76
M  V30 99 1 34 88
M  V30 100 1 35 51
M  V30 101 1 37 78
M  V30 102 1 38 63
M  V30 103 1 39 57
M  V30 104 1 40 96
M  V30 105 1 42 69
M  V30 106 1 43 90
M  V30 107 1 44 66
M  V30 108 1 45 60
M  V30 END BOND
M  V30 END CTAB
M  END

$$$$
