
     RDKit          3D

  0  0  0  0  0  0  0  0  0  0999 V3000
M  V30 BEGIN CTAB
M  V30 COUNTS 99 108 0 0 0
M  V30 BEGIN ATOM
M  V30 1 Pd 0.0499 2.4353 -2.3858 0
M  V30 2 Pb -0.3173 3.3600 -2.2949 0
M  V30 3 Pb 0.5166 1.5483 -2.4135 0
M  V30 4 Pb 0.6971 2.7550 -3.0766 0
M  V30 5 Pb -0.5695 2.1478 -1.6500 0
M  V30 6 Pd -2.8454 -4.8643 -3.6737 0
M  V30 7 Pb -2.8690 -5.2163 -2.7350 0
M  V30 8 Pb -1.9010 -5.1858 -3.7774 0
M  V30 9 Pb -3.7698 -4.4861 -3.5847 0
M  V30 10 Pb -2.8158 -4.5684 -4.6293 0
M  V30 11 Pd -0.0506 1.8164 7.0061 0
M  V30 12 Pb 0.6556 2.5224 7.0779 0
M  V30 13 Pb -0.7344 1.1089 6.8301 0
M  V30 14 Pb 0.5932 1.0779 7.1948 0
M  V30 15 Pb -0.6756 2.5505 6.7437 0
M  V30 16 Pd 3.2646 -2.8598 2.6725 0
M  V30 17 Pb 3.1769 -2.8115 3.6653 0
M  V30 18 Pb 3.3507 -2.8109 1.6751 0
M  V30 19 Pb 2.5975 -3.6071 2.6367 0
M  V30 20 Pb 3.9157 -2.1045 2.7104 0
M  V30 21 Pd -2.3529 -3.8759 2.1336 0
M  V30 22 Pb -2.4758 -4.5070 1.3632 0
M  V30 23 Pb -2.3008 -3.3012 2.9538 0
M  V30 24 Pb -1.4548 -4.2904 2.3058 0
M  V30 25 Pb -3.2581 -3.4837 1.9705 0
M  V30 26 Pd 4.9339 2.7236 -1.6012 0
M  V30 27 Pb 4.7628 1.7523 -1.7850 0
M  V30 28 Pb 5.0219 3.6852 -1.3380 0
M  V30 29 Pb 4.4997 2.9848 -2.4624 0
M  V30 30 Pb 5.3087 2.4383 -0.7228 0
M  V30 31 Pd 1.1322 7.2691 2.6934 0
M  V30 32 Pb 0.6037 7.3571 1.8505 0
M  V30 33 Pb 1.9737 7.3503 2.1580 0
M  V30 34 Pb 0.3019 7.0721 3.2127 0
M  V30 35 Pb 1.6403 7.0426 3.5251 0
M  V30 36 Pd -4.6112 -0.4390 -1.4318 0
M  V30 37 Pb -4.9338 -0.9113 -0.6131 0
M  V30 38 Pb -4.2694 0.0259 -2.2451 0
M  V30 39 Pb -5.1140 -1.1041 -1.9858 0
M  V30 40 Pb -4.0296 0.1593 -0.8812 0
M  V30 41 Pd 0.5775 -2.0772 -5.5169 0
M  V30 42 Pb 0.8609 -3.0038 -5.2739 0
M  V30 43 Pb 1.1002 -1.7014 -4.7538 0
M  V30 44 Pb 0.1486 -1.1910 -5.6560 0
M  V30 45 Pb -0.0579 -2.4652 -6.1783 0
M  V30 46 Ag -0.5280 4.0641 -2.1506 0
M  V30 47 Fe -0.2559 5.8050 -0.5607 0
M  V30 48 Ag 0.2242 7.3144 1.2066 0
M  V30 49 Ag 3.4575 -2.6627 0.9448 0
M  V30 50 Fe 4.0238 -0.9048 -0.5549 0
M  V30 51 Ag 4.6042 1.0171 -1.8316 0
M  V30 52 Ag -1.0606 3.1438 6.4969 0
M  V30 53 Fe -0.8382 5.0472 5.0964 0
M  V30 54 Ag -0.2676 6.8256 3.6318 0
M  V30 55 Ag 1.1386 3.0964 7.0380 0
M  V30 56 Fe 1.6784 4.9862 5.7022 0
M  V30 57 Ag 1.9425 6.7717 4.1566 0
M  V30 58 Ag 4.3841 -1.5223 2.6889 0
M  V30 59 Fe 5.0608 0.3576 1.4122 0
M  V30 60 Ag 5.5236 2.1504 -0.0686 0
M  V30 61 Ag 1.0392 0.4808 7.2519 0
M  V30 62 Fe 2.1336 -1.1752 5.9536 0
M  V30 63 Ag 3.1050 -2.6786 4.3975 0
M  V30 64 Ag -3.9454 0.3514 -2.8338 0
M  V30 65 Fe -2.1601 0.0974 -4.3686 0
M  V30 66 Ag -0.2955 -0.5949 -5.6529 0
M  V30 67 Ag 5.0283 4.3926 -1.0867 0
M  V30 68 Fe 3.8886 5.9539 0.2948 0
M  V30 69 Ag 2.5862 7.3342 1.7243 0
M  V30 70 Ag -1.1977 0.5447 6.6583 0
M  V30 71 Fe -1.7585 -1.1642 5.1040 0
M  V30 72 Ag -2.3565 -2.8894 3.5821 0
M  V30 73 Ba -2.8787 -5.5413 -2.0561 0
M  V30 74 Ga -2.7245 -5.2112 -0.6230 0
M  V30 75 Ba -2.5930 -5.0354 0.8393 0
M  V30 76 Ba -3.9385 -3.1826 1.8763 0
M  V30 77 Ga -4.5548 -2.2333 0.9319 0
M  V30 78 Ba -5.1749 -1.2846 -0.0106 0
M  V30 79 Ba 2.1071 -4.1777 2.6384 0
M  V30 80 Ga 0.6451 -4.3680 2.5191 0
M  V30 81 Ba -0.8022 -4.6531 2.4109 0
M  V30 82 Ba -2.7475 -4.3689 -5.3497 0
M  V30 83 Ga -1.7141 -3.5806 -6.0413 0
M  V30 84 Ba -0.6082 -2.7712 -6.5779 0
M  V30 85 Ba -1.1811 -5.3769 -3.8879 0
M  V30 86 Ga -0.0591 -4.6041 -4.4589 0
M  V30 87 Ba 0.9598 -3.7110 -5.0468 0
M  V30 88 Ba -4.4519 -4.1702 -3.5417 0
M  V30 89 Ga -4.9729 -2.9129 -2.9650 0
M  V30 90 Ba -5.4573 -1.6472 -2.3751 0
M  V30 91 Ba 1.2241 2.9878 -3.5553 0
M  V30 92 Ga 2.6828 3.0983 -3.3797 0
M  V30 93 Ba 4.1251 3.1644 -3.0858 0
M  V30 94 Ba -1.0264 1.9982 -1.0691 0
M  V30 95 Ga -2.2908 1.2831 -0.7970 0
M  V30 96 Ba -3.5517 0.5789 -0.4837 0
M  V30 97 Ba 0.9496 0.9324 -2.4279 0
M  V30 98 Ga 1.1775 -0.2430 -3.2922 0
M  V30 99 Ba 1.4250 -1.4291 -4.1363 0
M  V30 END ATOM
M  V30 BEGIN BOND
M  V30 1 1 1 2
M  V30 2 1 1 3
M  V30 3 1 1 4
M  V30 4 1 1 5
M  V30 5 1 6 7
M  V30 6 1 6 8
M  V30 7 1 6 9
M  V30 8 1 6 10
M  V30 9 1 11 12
M  V30 10 1 11 13
M  V30 11 1 11 14
M  V30 12 1 11 15
M  V30 13 1 16 17
M  V30 14 1 16 18
M  V30 15 1 16 19
M  V30 16 1 16 20
M  V30 17 1 21 22
M  V30 18 1 21 23
M  V30 19 1 21 24
M  V30 20 1 21 25
M  V30 21 1 26 27
M  V30 22 1 26 28
M  V30 23 1 26 29
M  V30 24 1 26 30
M  V30 25 1 31 32
M  V30 26 1 31 33
M  V30 27 1 31 34
M  V30 28 1 31 35
M  V30 29 1 36 37
M  V30 30 1 36 38
M  V30 31 1 36 39
M  V30 32 1 36 40
M  V30 33 1 41 42
M  V30 34 1 41 43
M  V30 35 1 41 44
M  V30 36 1 41 45
M  V30 37 1 46 47
M  V30 38 1 47 48
M  V30 39 1 49 50
M  V30 40 1 50 51
M  V30 41 1 52 53
M  V30 42 1 53 54
M  V30 43 1 55 56
M  V30 44 1 56 57
M  V30 45 1 58 59
M  V30 46 1 59 60
M  V30 47 1 61 62
M  V30 48 1 62 63
M  V30 49 1 64 65
M  V30 50 1 65 66
M  V30 51 1 67 68
M  V30 52 1 68 69
M  V30 53 1 70 71
M  V30 54 1 71 72
M  V30 55 1 73 74
M  V30 56 1 74 75
M  V30 57 1 76 77
M  V30 58 1 77 78
M  V30 59 1 79 80
M  V30 60 1 80 81
M  V30 61 1 82 83
M  V30 62 1 83 84
M  V30 63 1 85 86
M  V30 64 1 86 87
M  V30 65 1 88 89
M  V30 66 1 89 90
M  V30 67 1 91 92
M  V30 68 1 92 93
M  V30 69 1 94 95
M  V30 70 1 95 96
M  V30 71 1 97 98
M  V30 72 1 98 99
M  V30 73 1 2 46
M  V30 74 1 3 97
M  V30 75 1 4 91
M  V30 76 1 5 94
M  V30 77 1 7 73
M  V30 78 1 8 85
M  V30 79 1 9 88
M  V30 80 1 10 82
M  V30 81 1 12 55
M  V30 82 1 13 70
M  V30 83 1 14 61
M  V30 84 1 15 52
M  V30 85 1 17 63
M  V30 86 1 18 49
M  V30 87 1 19 79
M  V30 88 1 20 58
M  V30 89 1 22 75
M  V30 90 1 23 72
M  V30 91 1 24 81
M  V30 92 1 25 76
M  V30 93 1 27 51
M  V30 94 1 28 67
M  V30 95 1 29 93
M  V30 96 1 30 60
M  V30 97 1 32 48
M  V30 98 1 33 69
M  V30 99 1 34 54
M  V30 100 1 35 57
M  V30 101 1 37 78
M  V30 102 1 38 64
M  V30 103 1 39 90
M  V30 104 1 40 96
M  V30 105 1 42 87
M  V30 106 1 43 99
M  V30 107 1 44 66
M  V30 108 1 45 84
M  V30 END BOND
M  V30 END CTAB
M  END

$$$$
