
     RDKit          3D

  0  0  0  0  0  0  0  0  0  0999 V3000
M  V30 BEGIN CTAB
M  V30 COUNTS 99 108 0 0 0
M  V30 BEGIN ATOM
M  V30 1 Pd 2.2679 1.8948 3.6571 0
M  V30 2 Pb 2.1934 0.9254 3.8915 0
M  V30 3 Pb 3.2686 1.8018 3.6920 0
M  V30 4 Pb 1.2735 1.9948 3.7113 0
M  V30 5 Pb 2.2972 2.8704 3.4347 0
M  V30 6 Pd -5.1491 2.9997 1.0966 0
M  V30 7 Pb -4.4798 3.2414 0.3964 0
M  V30 8 Pb -5.8526 2.9954 0.3891 0
M  V30 9 Pb -4.4372 2.9408 1.7968 0
M  V30 10 Pb -5.7981 2.5653 1.7148 0
M  V30 11 Pd -4.8436 -0.2034 -2.3812 0
M  V30 12 Pb -4.0415 -0.7992 -2.3863 0
M  V30 13 Pb -5.6337 0.4056 -2.3513 0
M  V30 14 Pb -5.4483 -1.0025 -2.3524 0
M  V30 15 Pb -4.2545 0.6092 -2.3551 0
M  V30 16 Pd -0.9271 -4.9862 2.2586 0
M  V30 17 Pb -1.5601 -5.4872 1.6674 0
M  V30 18 Pb -0.1903 -5.1122 1.5951 0
M  V30 19 Pb -1.6684 -4.8679 2.9191 0
M  V30 20 Pb -0.3059 -4.4578 2.8367 0
M  V30 21 Pd 0.4286 0.5389 -3.4222 0
M  V30 22 Pb 0.9923 1.3095 -3.7245 0
M  V30 23 Pb 0.9461 -0.1069 -3.9879 0
M  V30 24 Pb -0.1435 -0.2243 -3.1219 0
M  V30 25 Pb -0.0941 1.1757 -2.8521 0
M  V30 26 Pd -5.8882 -3.9742 1.3438 0
M  V30 27 Pb -5.4600 -4.1440 2.2305 0
M  V30 28 Pb -5.3450 -4.7202 0.9585 0
M  V30 29 Pb -6.2677 -3.7758 0.4376 0
M  V30 30 Pb -6.3875 -3.2068 1.7449 0
M  V30 31 Pd 7.4426 1.3609 0.9473 0
M  V30 32 Pb 7.3219 0.3625 0.7934 0
M  V30 33 Pb 7.4384 2.3555 0.9812 0
M  V30 34 Pb 7.9025 1.4342 0.0706 0
M  V30 35 Pb 6.9681 1.3250 1.8302 0
M  V30 36 Pd 1.8816 4.8740 -0.8557 0
M  V30 37 Pb 2.8078 5.2288 -0.7578 0
M  V30 38 Pb 0.9709 4.4657 -0.9201 0
M  V30 39 Pb 1.7778 5.0760 0.1181 0
M  V30 40 Pb 2.0421 4.6167 -1.8096 0
M  V30 41 Pd 4.7739 -2.4313 -2.6226 0
M  V30 42 Pb 4.1839 -3.0690 -2.1264 0
M  V30 43 Pb 5.3967 -1.8718 -3.1556 0
M  V30 44 Pb 5.3924 -2.3445 -1.8164 0
M  V30 45 Pb 4.1372 -2.4241 -3.3935 0
M  V30 46 Ag 0.3654 -5.2134 1.1025 0
M  V30 47 Fe 2.0536 -4.3524 -0.3291 0
M  V30 48 Ag 3.7672 -3.5935 -1.7879 0
M  V30 49 Ag -6.2506 2.1021 2.0850 0
M  V30 50 Fe -6.6246 -0.2370 2.2013 0
M  V30 51 Ag -6.7052 -2.6033 2.0556 0
M  V30 52 Ag 7.3193 3.0850 0.8916 0
M  V30 53 Fe 5.5404 4.4705 0.1677 0
M  V30 54 Ag 3.5086 5.4228 -0.5904 0
M  V30 55 Ag 2.1284 0.2002 4.0720 0
M  V30 56 Fe 1.1563 -1.9304 3.6777 0
M  V30 57 Ag 0.1625 -4.0448 3.2514 0
M  V30 58 Ag 8.1276 1.4211 -0.6326 0
M  V30 59 Fe 7.3275 0.1681 -2.4540 0
M  V30 60 Ag 5.9153 -1.4308 -3.4431 0
M  V30 61 Ag 0.5371 2.1105 3.8033 0
M  V30 62 Fe -1.6741 2.4825 3.0182 0
M  V30 63 Ag -3.9172 2.8584 2.3314 0
M  V30 64 Ba 7.2233 -0.3862 0.6546 0
M  V30 65 Ga 6.5134 -1.2901 -0.3067 0
M  V30 66 Ba 5.8537 -2.2937 -1.2025 0
M  V30 67 Ba -2.0590 -5.8393 1.2310 0
M  V30 68 Ga -3.4824 -5.5821 0.9399 0
M  V30 69 Ba -4.9024 -5.2654 0.6951 0
M  V30 70 Ba 4.0067 1.6882 3.8068 0
M  V30 71 Ga 5.2925 1.5179 3.0936 0
M  V30 72 Ba 6.6393 1.3325 2.5076 0
M  V30 73 Ba -3.4340 -1.2376 -2.3770 0
M  V30 74 Ga -2.0001 -1.0226 -2.6441 0
M  V30 75 Ba -0.5662 -0.8069 -2.9113 0
M  V30 76 Ba 2.2261 3.6031 3.2828 0
M  V30 77 Ga 2.0094 4.4143 2.0679 0
M  V30 78 Ba 1.7938 5.2260 0.8533 0
M  V30 79 Ba -2.2461 -4.7919 3.3911 0
M  V30 80 Ga -3.6797 -4.5269 3.1720 0
M  V30 81 Ba -5.0990 -4.2590 2.8769 0
M  V30 82 Ba -6.3530 2.9238 -0.1614 0
M  V30 83 Ga -6.3510 1.9448 -1.2587 0
M  V30 84 Ba -6.1887 0.9017 -2.2825 0
M  V30 85 Ba 1.3096 -0.6206 -4.4006 0
M  V30 86 Ga 2.4818 -1.4955 -4.1952 0
M  V30 87 Ba 3.6578 -2.3595 -3.9670 0
M  V30 88 Ba -4.0086 3.2952 -0.1832 0
M  V30 89 Ga -3.8676 2.3123 -1.2773 0
M  V30 90 Ba -3.8467 1.2406 -2.2948 0
M  V30 91 Ba -0.4753 1.6659 -2.4283 0
M  V30 92 Ga -0.1065 2.8968 -1.7011 0
M  V30 93 Ba 0.3076 4.1220 -0.9887 0
M  V30 94 Ba 1.3925 1.9104 -3.9332 0
M  V30 95 Ga 1.7894 3.1540 -3.2424 0
M  V30 96 Ba 2.1643 4.3822 -2.5127 0
M  V30 97 Ba -5.9139 -1.5922 -2.3098 0
M  V30 98 Ga -6.2211 -2.6099 -1.2822 0
M  V30 99 Ba -6.5264 -3.6265 -0.2530 0
M  V30 END ATOM
M  V30 BEGIN BOND
M  V30 1 1 1 2
M  V30 2 1 1 3
M  V30 3 1 1 4
M  V30 4 1 1 5
M  V30 5 1 6 7
M  V30 6 1 6 8
M  V30 7 1 6 9
M  V30 8 1 6 10
M  V30 9 1 11 12
M  V30 10 1 11 13
M  V30 11 1 11 14
M  V30 12 1 11 15
M  V30 13 1 16 17
M  V30 14 1 16 18
M  V30 15 1 16 19
M  V30 16 1 16 20
M  V30 17 1 21 22
M  V30 18 1 21 23
M  V30 19 1 21 24
M  V30 20 1 21 25
M  V30 21 1 26 27
M  V30 22 1 26 28
M  V30 23 1 26 29
M  V30 24 1 26 30
M  V30 25 1 31 32
M  V30 26 1 31 33
M  V30 27 1 31 34
M  V30 28 1 31 35
M  V30 29 1 36 37
M  V30 30 1 36 38
M  V30 31 1 36 39
M  V30 32 1 36 40
M  V30 33 1 41 42
M  V30 34 1 41 43
M  V30 35 1 41 44
M  V30 36 1 41 45
M  V30 37 1 46 47
M  V30 38 1 47 48
M  V30 39 1 49 50
M  V30 40 1 50 51
M  V30 41 1 52 53
M  V30 42 1 53 54
M  V30 43 1 55 56
M  V30 44 1 56 57
M  V30 45 1 58 59
M  V30 46 1 59 60
M  V30 47 1 61 62
M  V30 48 1 62 63
M  V30 49 1 64 65
M  V30 50 1 65 66
M  V30 51 1 67 68
M  V30 52 1 68 69
M  V30 53 1 70 71
M  V30 54 1 71 72
M  V30 55 1 73 74
M  V30 56 1 74 75
M  V30 57 1 76 77
M  V30 58 1 77 78
M  V30 59 1 79 80
M  V30 60 1 80 81
M  V30 61 1 82 83
M  V30 62 1 83 84
M  V30 63 1 85 86
M  V30 64 1 86 87
M  V30 65 1 88 89
M  V30 66 1 89 90
M  V30 67 1 91 92
M  V30 68 1 92 93
M  V30 69 1 94 95
M  V30 70 1 95 96
M  V30 71 1 97 98
M  V30 72 1 98 99
M  V30 73 1 2 55
M  V30 74 1 3 70
M  V30 75 1 4 61
M  V30 76 1 5 76
M  V30 77 1 7 88
M  V30 78 1 8 82
M  V30 79 1 9 63
M  V30 80 1 10 49
M  V30 81 1 12 73
M  V30 82 1 13 84
M  V30 83 1 14 97
M  V30 84 1 15 90
M  V30 85 1 17 67
M  V30 86 1 18 46
M  V30 87 1 19 79
M  V30 88 1 20 57
M  V30 89 1 22 94
M  V30 90 1 23 85
M  V30 91 1 24 75
M  V30 92 1 25 91
M  V30 93 1 27 81
M  V30 94 1 28 69
M  V30 95 1 29 99
M  V30 96 1 30 51
M  V30 97 1 32 64
M  V30 98 1 33 52
M  V30 99 1 34 58
M  V30 100 1 35 72
M  V30 101 1 37 54
M  V30 102 1 38 93
M  V30 103 1 39 78
M  V30 104 1 40 96
M  V30 105 1 42 48
M  V30 106 1 43 60
M  V30 107 1 44 66
M  V30 108 1 45 87
M  V30 END BOND
M  V30 END CTAB
M  END

$$$$
