
     RDKit          3D

  0  0  0  0  0  0  0  0  0  0999 V3000
M  V30 BEGIN CTAB
M  V30 COUNTS 99 108 0 0 0
M  V30 BEGIN ATOM
M  V30 1 Pd -0.3653 -3.2088 0.2018 0
M  V30 2 Pb -1.3435 -3.3790 0.3099 0
M  V30 3 Pb -0.5050 -2.3523 0.7023 0
M  V30 4 Pb -0.2459 -4.0502 -0.3284 0
M  V30 5 Pb 0.6055 -3.0000 0.0755 0
M  V30 6 Pd 0.8658 2.4967 7.8552 0
M  V30 7 Pb 1.1329 3.2654 7.2743 0
M  V30 8 Pb 0.6068 1.6786 8.3675 0
M  V30 9 Pb 1.8363 2.3108 8.0035 0
M  V30 10 Pb -0.0966 2.6042 7.6020 0
M  V30 11 Pd -2.9046 3.2214 -3.6739 0
M  V30 12 Pb -3.6384 3.0885 -3.0083 0
M  V30 13 Pb -2.3454 3.6597 -2.9684 0
M  V30 14 Pb -2.1735 3.3905 -4.3400 0
M  V30 15 Pb -3.4852 2.7731 -4.3603 0
M  V30 16 Pd 1.3029 0.5513 -5.9101 0
M  V30 17 Pb 0.9999 1.5028 -5.9619 0
M  V30 18 Pb 0.7182 0.3465 -6.6854 0
M  V30 19 Pb 1.9419 0.7775 -5.1754 0
M  V30 20 Pb 1.5358 -0.4385 -5.8227 0
M  V30 21 Pd 3.4907 3.8074 0.9143 0
M  V30 22 Pb 3.2794 4.2519 1.7856 0
M  V30 23 Pb 2.5871 4.0773 0.5768 0
M  V30 24 Pb 3.6803 3.3305 0.0569 0
M  V30 25 Pb 4.4078 3.5621 1.2374 0
M  V30 26 Pd -0.8215 -4.8508 -5.1298 0
M  V30 27 Pb -1.1031 -4.5347 -6.0273 0
M  V30 28 Pb -1.7605 -5.1630 -5.0121 0
M  V30 29 Pb -0.5558 -5.2007 -4.2278 0
M  V30 30 Pb 0.0612 -4.3585 -5.2419 0
M  V30 31 Pd -6.1789 -0.7264 -3.0689 0
M  V30 32 Pb -6.1490 -1.2583 -2.2264 0
M  V30 33 Pb -6.1270 -1.6027 -3.5463 0
M  V30 34 Pb -6.0600 -0.1972 -3.9116 0
M  V30 35 Pb -6.1717 0.1299 -2.5567 0
M  V30 36 Pd 5.7139 -0.3750 3.4367 0
M  V30 37 Pb 6.1356 0.4520 3.0665 0
M  V30 38 Pb 5.2031 -1.1578 3.7861 0
M  V30 39 Pb 5.7937 -0.0101 4.3640 0
M  V30 40 Pb 5.5246 -0.7259 2.5220 0
M  V30 41 Pd -1.0929 -1.0235 5.4562 0
M  V30 42 Pb -0.9886 -1.1520 6.4416 0
M  V30 43 Pb -1.1270 -0.8205 4.4751 0
M  V30 44 Pb -0.4039 -1.7269 5.2972 0
M  V30 45 Pb -1.6809 -0.2379 5.6521 0
M  V30 46 Ag 1.3708 3.7972 6.8022 0
M  V30 47 Fe 2.2324 4.2498 4.6353 0
M  V30 48 Ag 3.0864 4.5632 2.4410 0
M  V30 49 Ag -2.0876 -3.4245 0.3781 0
M  V30 50 Fe -4.1437 -2.6459 -0.5124 0
M  V30 51 Ag -6.0017 -1.6957 -1.6394 0
M  V30 52 Ag 2.4525 0.9537 -4.6553 0
M  V30 53 Fe 3.1088 1.9620 -2.6083 0
M  V30 54 Ag 3.8260 2.9504 -0.5720 0
M  V30 55 Ag 0.2871 0.0719 -7.2183 0
M  V30 56 Fe -0.7474 -2.0289 -7.4227 0
M  V30 57 Ag -1.2754 -4.1872 -6.6557 0
M  V30 58 Ag 2.5664 2.1433 8.0106 0
M  V30 59 Fe 4.2800 1.2248 6.6480 0
M  V30 60 Ag 5.7632 0.2707 5.0585 0
M  V30 61 Ag 1.3301 -2.8299 -0.0246 0
M  V30 62 Fe 3.3511 -1.9384 0.8469 0
M  V30 63 Ag 5.2820 -1.0182 1.8776 0
M  V30 64 Ag 4.7392 -1.7017 4.0051 0
M  V30 65 Fe 2.4867 -2.1101 4.6248 0
M  V30 66 Ag 0.1874 -2.1739 5.2024 0
M  V30 67 Ag -2.5023 -5.2348 -4.9642 0
M  V30 68 Fe -4.3870 -3.8984 -4.4249 0
M  V30 69 Ag -6.0261 -2.2947 -3.8157 0
M  V30 70 Ag -1.9385 3.9907 -2.4305 0
M  V30 71 Fe 0.0019 4.1186 -1.0643 0
M  V30 72 Ag 1.9139 4.3077 0.3347 0
M  V30 73 Ba 5.1070 3.3858 1.4541 0
M  V30 74 Ga 5.7624 2.2436 2.1226 0
M  V30 75 Ba 6.4055 1.0954 2.7926 0
M  V30 76 Ba -3.9553 2.4326 -4.8428 0
M  V30 77 Ga -4.9349 1.3304 -4.7084 0
M  V30 78 Ba -5.8982 0.2227 -4.5150 0
M  V30 79 Ba -0.8097 2.5972 7.3667 0
M  V30 80 Ga -1.5043 1.5398 6.6053 0
M  V30 81 Ba -2.0410 0.3906 5.8494 0
M  V30 82 Ba 0.3793 1.0355 8.6778 0
M  V30 83 Ga -0.2521 -0.1162 8.0099 0
M  V30 84 Ba -0.8673 -1.1673 7.1806 0
M  V30 85 Ba -4.2031 2.9877 -2.5259 0
M  V30 86 Ga -5.1773 1.9008 -2.3279 0
M  V30 87 Ba -6.1186 0.7769 -2.1856 0
M  V30 88 Ba 1.7362 -1.1785 -5.7506 0
M  V30 89 Ga 1.1621 -2.5467 -5.5418 0
M  V30 90 Ba 0.7107 -3.9608 -5.3368 0
M  V30 91 Ba -1.6151 3.5576 -4.8173 0
M  V30 92 Ga -0.4458 2.8732 -5.4069 0
M  V30 93 Ba 0.7262 2.2000 -6.0039 0
M  V30 94 Ba -0.1429 -4.6768 -0.7307 0
M  V30 95 Ga -0.2617 -5.0622 -2.1530 0
M  V30 96 Ba -0.3646 -5.4971 -3.5621 0
M  V30 97 Ba -0.6548 -1.7006 1.0458 0
M  V30 98 Ga -0.8793 -1.2003 2.4182 0
M  V30 99 Ba -1.1189 -0.6115 3.7523 0
M  V30 END ATOM
M  V30 BEGIN BOND
M  V30 1 1 1 2
M  V30 2 1 1 3
M  V30 3 1 1 4
M  V30 4 1 1 5
M  V30 5 1 6 7
M  V30 6 1 6 8
M  V30 7 1 6 9
M  V30 8 1 6 10
M  V30 9 1 11 12
M  V30 10 1 11 13
M  V30 11 1 11 14
M  V30 12 1 11 15
M  V30 13 1 16 17
M  V30 14 1 16 18
M  V30 15 1 16 19
M  V30 16 1 16 20
M  V30 17 1 21 22
M  V30 18 1 21 23
M  V30 19 1 21 24
M  V30 20 1 21 25
M  V30 21 1 26 27
M  V30 22 1 26 28
M  V30 23 1 26 29
M  V30 24 1 26 30
M  V30 25 1 31 32
M  V30 26 1 31 33
M  V30 27 1 31 34
M  V30 28 1 31 35
M  V30 29 1 36 37
M  V30 30 1 36 38
M  V30 31 1 36 39
M  V30 32 1 36 40
M  V30 33 1 41 42
M  V30 34 1 41 43
M  V30 35 1 41 44
M  V30 36 1 41 45
M  V30 37 1 46 47
M  V30 38 1 47 48
M  V30 39 1 49 50
M  V30 40 1 50 51
M  V30 41 1 52 53
M  V30 42 1 53 54
M  V30 43 1 55 56
M  V30 44 1 56 57
M  V30 45 1 58 59
M  V30 46 1 59 60
M  V30 47 1 61 62
M  V30 48 1 62 63
M  V30 49 1 64 65
M  V30 50 1 65 66
M  V30 51 1 67 68
M  V30 52 1 68 69
M  V30 53 1 70 71
M  V30 54 1 71 72
M  V30 55 1 73 74
M  V30 56 1 74 75
M  V30 57 1 76 77
M  V30 58 1 77 78
M  V30 59 1 79 80
M  V30 60 1 80 81
M  V30 61 1 82 83
M  V30 62 1 83 84
M  V30 63 1 85 86
M  V30 64 1 86 87
M  V30 65 1 88 89
M  V30 66 1 89 90
M  V30 67 1 91 92
M  V30 68 1 92 93
M  V30 69 1 94 95
M  V30 70 1 95 96
M  V30 71 1 97 98
M  V30 72 1 98 99
M  V30 73 1 2 49
M  V30 74 1 3 97
M  V30 75 1 4 94
M  V30 76 1 5 61
M  V30 77 1 7 46
M  V30 78 1 8 82
M  V30 79 1 9 58
M  V30 80 1 10 79
M  V30 81 1 12 85
M  V30 82 1 13 70
M  V30 83 1 14 91
M  V30 84 1 15 76
M  V30 85 1 17 93
M  V30 86 1 18 55
M  V30 87 1 19 52
M  V30 88 1 20 88
M  V30 89 1 22 48
M  V30 90 1 23 72
M  V30 91 1 24 54
M  V30 92 1 25 73
M  V30 93 1 27 57
M  V30 94 1 28 67
M  V30 95 1 29 96
M  V30 96 1 30 90
M  V30 97 1 32 51
M  V30 98 1 33 69
M  V30 99 1 34 78
M  V30 100 1 35 87
M  V30 101 1 37 75
M  V30 102 1 38 64
M  V30 103 1 39 60
M  V30 104 1 40 63
M  V30 105 1 42 84
M  V30 106 1 43 99
M  V30 107 1 44 66
M  V30 108 1 45 81
M  V30 END BOND
M  V30 END CTAB
M  END

$$$$
