
     RDKit          3D

  0  0  0  0  0  0  0  0  0  0999 V3000
M  V30 BEGIN CTAB
M  V30 COUNTS 99 108 0 0 0
M  V30 BEGIN ATOM
M  V30 1 Pd -1.9351 -5.4869 -0.2437 0
M  V30 2 Pb -1.7420 -4.8634 -0.9998 0
M  V30 3 Pb -2.1211 -6.0652 0.5586 0
M  V30 4 Pb -2.9007 -5.2306 -0.2137 0
M  V30 5 Pb -0.9648 -5.6424 -0.0613 0
M  V30 6 Pd 3.3786 3.8061 2.8106 0
M  V30 7 Pb 3.5889 2.8903 3.2008 0
M  V30 8 Pb 3.1644 4.6580 2.3329 0
M  V30 9 Pb 4.2989 3.8486 2.4398 0
M  V30 10 Pb 2.4773 3.7970 3.2476 0
M  V30 11 Pd -2.2062 -4.7578 5.2307 0
M  V30 12 Pb -1.2245 -4.9417 5.1915 0
M  V30 13 Pb -2.0819 -3.9515 5.8069 0
M  V30 14 Pb -3.1609 -4.5323 5.0395 0
M  V30 15 Pb -2.3197 -5.5301 4.5956 0
M  V30 16 Pd -4.6393 1.5369 -1.2824 0
M  V30 17 Pb -4.4156 1.2973 -2.2302 0
M  V30 18 Pb -4.8085 1.7671 -0.3129 0
M  V30 19 Pb -4.9034 0.5978 -1.0805 0
M  V30 20 Pb -4.3917 2.4946 -1.4352 0
M  V30 21 Pd 0.4711 2.6537 -6.5933 0
M  V30 22 Pb 1.0625 1.8542 -6.4820 0
M  V30 23 Pb 1.2494 3.2867 -6.5352 0
M  V30 24 Pb -0.3432 2.0788 -6.5090 0
M  V30 25 Pb -0.1213 3.4385 -6.7443 0
M  V30 26 Pd 0.3589 6.6310 -3.6773 0
M  V30 27 Pb -0.4953 6.6763 -3.1650 0
M  V30 28 Pb 0.8781 6.7649 -2.8311 0
M  V30 29 Pb -0.1817 6.5269 -4.5061 0
M  V30 30 Pb 1.1787 6.4246 -4.2184 0
M  V30 31 Pd -3.3677 0.4326 4.4237 0
M  V30 32 Pb -3.8779 -0.3638 4.1124 0
M  V30 33 Pb -3.8485 0.9818 3.7222 0
M  V30 34 Pb -2.7959 1.2220 4.6449 0
M  V30 35 Pb -2.9239 -0.1010 5.1451 0
M  V30 36 Pd 2.5910 -3.2586 -2.2830 0
M  V30 37 Pb 2.7427 -2.8719 -3.1913 0
M  V30 38 Pb 2.4496 -3.5478 -1.3347 0
M  V30 39 Pb 1.6059 -3.1797 -2.4367 0
M  V30 40 Pb 3.5739 -3.3698 -2.1448 0
M  V30 41 Pd 5.3525 -1.6504 1.6384 0
M  V30 42 Pb 5.6980 -2.2180 0.8947 0
M  V30 43 Pb 4.5552 -2.2545 1.6986 0
M  V30 44 Pb 6.1300 -1.0434 1.5224 0
M  V30 45 Pb 4.9783 -1.0216 2.3460 0
M  V30 46 Ag 1.4878 1.2389 -6.4181 0
M  V30 47 Fe 2.1894 -0.6542 -5.1675 0
M  V30 48 Ag 2.8334 -2.5191 -3.8456 0
M  V30 49 Ag -0.3228 -5.7131 0.3155 0
M  V30 50 Fe 0.0355 -5.4885 2.6474 0
M  V30 51 Ag -0.5498 -5.0998 4.9108 0
M  V30 52 Ag -5.0789 -0.0549 -0.7711 0
M  V30 53 Fe -4.8436 -0.8808 1.4288 0
M  V30 54 Ag -4.2296 -0.8785 3.7088 0
M  V30 55 Ag 3.0216 5.2633 1.9133 0
M  V30 56 Fe 2.1282 6.0994 -0.1238 0
M  V30 57 Ag 1.2246 6.8880 -2.1752 0
M  V30 58 Ag 1.8211 3.8027 3.6144 0
M  V30 59 Fe -0.2622 2.8187 4.1947 0
M  V30 60 Ag -2.3383 1.8061 4.7511 0
M  V30 61 Ag -3.5647 -5.0240 0.0611 0
M  V30 62 Fe -4.1426 -4.6023 2.3204 0
M  V30 63 Ag -3.7922 -4.4136 4.6567 0
M  V30 64 Ag -4.2143 3.2222 -1.4916 0
M  V30 65 Fe -2.7266 4.9588 -2.1312 0
M  V30 66 Ag -1.1558 6.5987 -2.8241 0
M  V30 67 Ag -4.2113 1.1130 -2.9309 0
M  V30 68 Fe -2.6389 1.3524 -4.6978 0
M  V30 69 Ag -0.9768 1.7045 -6.3606 0
M  V30 70 Ag 4.9915 3.7569 2.1964 0
M  V30 71 Fe 6.2517 1.8350 1.6875 0
M  V30 72 Ag 6.5993 -0.4790 1.4353 0
M  V30 73 Ba -1.5914 -4.3740 -1.5464 0
M  V30 74 Ga -0.3584 -3.7534 -2.0645 0
M  V30 75 Ba 0.8722 -3.1302 -2.5851 0
M  V30 76 Ba -4.9404 1.9747 0.4067 0
M  V30 77 Ga -4.5459 1.6352 1.8013 0
M  V30 78 Ba -4.2516 1.4167 3.2440 0
M  V30 79 Ba -2.2587 -6.4900 1.1692 0
M  V30 80 Ga -2.3269 -6.2779 2.6360 0
M  V30 81 Ba -2.4030 -6.1014 4.1071 0
M  V30 82 Ba -0.5437 4.0444 -6.8375 0
M  V30 83 Ga -0.6154 5.2626 -6.0253 0
M  V30 84 Ba -0.5831 6.4179 -5.1237 0
M  V30 85 Ba 2.3813 -3.7097 -0.6039 0
M  V30 86 Ga 3.1472 -3.2401 0.5699 0
M  V30 87 Ba 3.9650 -2.7207 1.6861 0
M  V30 88 Ba 4.3032 -3.4681 -2.0067 0
M  V30 89 Ga 5.1517 -3.0654 -0.8735 0
M  V30 90 Ba 5.9160 -2.6170 0.3017 0
M  V30 91 Ba 3.7326 2.1999 3.5028 0
M  V30 92 Ga 4.2312 0.8398 3.1281 0
M  V30 93 Ba 4.7089 -0.5591 2.8962 0
M  V30 94 Ba -1.9853 -3.3283 6.2106 0
M  V30 95 Ga -2.2927 -1.9072 5.9626 0
M  V30 96 Ba -2.6045 -0.4891 5.7032 0
M  V30 97 Ba 1.7877 3.8061 -6.4276 0
M  V30 98 Ga 1.8153 5.0107 -5.5624 0
M  V30 99 Ba 1.7400 6.1895 -4.6650 0
M  V30 END ATOM
M  V30 BEGIN BOND
M  V30 1 1 1 2
M  V30 2 1 1 3
M  V30 3 1 1 4
M  V30 4 1 1 5
M  V30 5 1 6 7
M  V30 6 1 6 8
M  V30 7 1 6 9
M  V30 8 1 6 10
M  V30 9 1 11 12
M  V30 10 1 11 13
M  V30 11 1 11 14
M  V30 12 1 11 15
M  V30 13 1 16 17
M  V30 14 1 16 18
M  V30 15 1 16 19
M  V30 16 1 16 20
M  V30 17 1 21 22
M  V30 18 1 21 23
M  V30 19 1 21 24
M  V30 20 1 21 25
M  V30 21 1 26 27
M  V30 22 1 26 28
M  V30 23 1 26 29
M  V30 24 1 26 30
M  V30 25 1 31 32
M  V30 26 1 31 33
M  V30 27 1 31 34
M  V30 28 1 31 35
M  V30 29 1 36 37
M  V30 30 1 36 38
M  V30 31 1 36 39
M  V30 32 1 36 40
M  V30 33 1 41 42
M  V30 34 1 41 43
M  V30 35 1 41 44
M  V30 36 1 41 45
M  V30 37 1 46 47
M  V30 38 1 47 48
M  V30 39 1 49 50
M  V30 40 1 50 51
M  V30 41 1 52 53
M  V30 42 1 53 54
M  V30 43 1 55 56
M  V30 44 1 56 57
M  V30 45 1 58 59
M  V30 46 1 59 60
M  V30 47 1 61 62
M  V30 48 1 62 63
M  V30 49 1 64 65
M  V30 50 1 65 66
M  V30 51 1 67 68
M  V30 52 1 68 69
M  V30 53 1 70 71
M  V30 54 1 71 72
M  V30 55 1 73 74
M  V30 56 1 74 75
M  V30 57 1 76 77
M  V30 58 1 77 78
M  V30 59 1 79 80
M  V30 60 1 80 81
M  V30 61 1 82 83
M  V30 62 1 83 84
M  V30 63 1 85 86
M  V30 64 1 86 87
M  V30 65 1 88 89
M  V30 66 1 89 90
M  V30 67 1 91 92
M  V30 68 1 92 93
M  V30 69 1 94 95
M  V30 70 1 95 96
M  V30 71 1 97 98
M  V30 72 1 98 99
M  V30 73 1 2 73
M  V30 74 1 3 79
M  V30 75 1 4 61
M  V30 76 1 5 49
M  V30 77 1 7 91
M  V30 78 1 8 55
M  V30 79 1 9 70
M  V30 80 1 10 58
M  V30 81 1 12 51
M  V30 82 1 13 94
M  V30 83 1 14 63
M  V30 84 1 15 81
M  V30 85 1 17 67
M  V30 86 1 18 76
M  V30 87 1 19 52
M  V30 88 1 20 64
M  V30 89 1 22 46
M  V30 90 1 23 97
M  V30 91 1 24 69
M  V30 92 1 25 82
M  V30 93 1 27 66
M  V30 94 1 28 57
M  V30 95 1 29 84
M  V30 96 1 30 99
M  V30 97 1 32 54
M  V30 98 1 33 78
M  V30 99 1 34 60
M  V30 100 1 35 96
M  V30 101 1 37 48
M  V30 102 1 38 85
M  V30 103 1 39 75
M  V30 104 1 40 88
M  V30 105 1 42 90
M  V30 106 1 43 87
M  V30 107 1 44 72
M  V30 108 1 45 93
M  V30 END BOND
M  V30 END CTAB
M  END

$$$$
