
     RDKit          3D

  0  0  0  0  0  0  0  0  0  0999 V3000
M  V30 BEGIN CTAB
M  V30 COUNTS 99 108 0 0 0
M  V30 BEGIN ATOM
M  V30 1 Pd 3.0226 -0.4183 -2.3246 0
M  V30 2 Pb 2.9246 0.5696 -2.5053 0
M  V30 3 Pb 3.3468 -1.4123 -2.1595 0
M  V30 4 Pb 2.4025 -0.3801 -3.1152 0
M  V30 5 Pb 3.7260 -0.3112 -1.6841 0
M  V30 6 Pd 2.4771 -5.8684 4.4078 0
M  V30 7 Pb 1.6068 -5.2467 4.4529 0
M  V30 8 Pb 2.1077 -6.4654 3.6774 0
M  V30 9 Pb 2.9874 -5.3812 5.1527 0
M  V30 10 Pb 3.3106 -6.4153 4.3430 0
M  V30 11 Pd -3.9224 6.0907 1.1061 0
M  V30 12 Pb -3.1043 6.6028 1.3591 0
M  V30 13 Pb -3.8339 5.3788 1.8104 0
M  V30 14 Pb -4.8293 5.7812 0.9286 0
M  V30 15 Pb -3.9929 6.6522 0.2809 0
M  V30 16 Pd -7.1740 0.9257 -1.7289 0
M  V30 17 Pb -7.7800 1.5614 -1.2873 0
M  V30 18 Pb -6.6620 0.2403 -2.2629 0
M  V30 19 Pb -6.8841 0.5000 -0.8525 0
M  V30 20 Pb -7.2987 1.4499 -2.5648 0
M  V30 21 Pd -2.1865 -1.1793 4.0955 0
M  V30 22 Pb -1.6855 -2.1146 4.0881 0
M  V30 23 Pb -2.5642 -0.2342 4.0477 0
M  V30 24 Pb -2.9973 -1.3565 3.5539 0
M  V30 25 Pb -1.5494 -0.9293 4.7973 0
M  V30 26 Pd -1.7951 1.7844 -5.7329 0
M  V30 27 Pb -2.2337 0.9125 -5.6049 0
M  V30 28 Pb -1.5043 2.6491 -6.1288 0
M  V30 29 Pb -0.8712 1.4148 -5.4540 0
M  V30 30 Pb -2.7144 2.1642 -5.8468 0
M  V30 31 Pd -0.7576 6.3049 -3.3088 0
M  V30 32 Pb 0.0822 5.8080 -3.5400 0
M  V30 33 Pb -1.2538 5.8511 -4.0266 0
M  V30 34 Pb -1.6281 6.6968 -2.9981 0
M  V30 35 Pb -0.2702 6.9670 -2.7424 0
M  V30 36 Pd 4.7149 -2.0420 2.9888 0
M  V30 37 Pb 3.7517 -1.8216 3.1308 0
M  V30 38 Pb 5.7243 -2.1795 2.9246 0
M  V30 39 Pb 4.7347 -2.3324 3.9628 0
M  V30 40 Pb 4.6864 -1.7018 2.0331 0
M  V30 41 Pd 5.4686 -5.8839 0.4800 0
M  V30 42 Pb 4.5339 -6.2563 0.6229 0
M  V30 43 Pb 5.2193 -5.0796 -0.1550 0
M  V30 44 Pb 6.4614 -5.8072 0.3930 0
M  V30 45 Pb 5.7140 -6.4439 1.2599 0
M  V30 46 Ag 2.8747 1.2733 -2.7703 0
M  V30 47 Fe 1.6178 3.2180 -3.3474 0
M  V30 48 Ag 0.7098 5.3998 -3.6487 0
M  V30 49 Ag -0.9983 -0.8356 5.2506 0
M  V30 50 Fe 1.2008 -1.5540 4.8230 0
M  V30 51 Ag 3.0924 -1.6854 3.4234 0
M  V30 52 Ag -6.6605 0.1569 -0.2051 0
M  V30 53 Fe -5.0481 -0.4075 1.4734 0
M  V30 54 Ag -3.6805 -1.3392 3.2026 0
M  V30 55 Ag -6.3135 -0.1705 -2.7660 0
M  V30 56 Fe -4.8535 0.1268 -4.5870 0
M  V30 57 Ag -2.7074 0.3590 -5.5204 0
M  V30 58 Ag -2.5792 7.1250 1.3604 0
M  V30 59 Fe -1.4556 8.1312 -0.4405 0
M  V30 60 Ag -0.1108 7.5052 -2.2624 0
M  V30 61 Ag -7.2500 1.8519 -3.1882 0
M  V30 62 Fe -5.4992 2.2947 -4.7226 0
M  V30 63 Ag -3.4229 2.4171 -5.8602 0
M  V30 64 Ag -5.5312 5.5981 0.8282 0
M  V30 65 Fe -6.9862 3.9492 0.0077 0
M  V30 66 Ag -8.1077 2.1290 -0.9679 0
M  V30 67 Ag 6.4699 -2.3560 2.9219 0
M  V30 68 Fe 7.6811 -4.2684 2.3219 0
M  V30 69 Ag 7.1758 -5.7390 0.5781 0
M  V30 70 Ag -3.8554 4.8043 2.2982 0
M  V30 71 Fe -3.3317 2.5781 2.9876 0
M  V30 72 Ag -2.8649 0.4819 4.0409 0
M  V30 73 Ba 0.8652 -4.9504 4.4705 0
M  V30 74 Ga -0.1146 -3.7813 4.3315 0
M  V30 75 Ba -1.3351 -2.8287 4.2609 0
M  V30 76 Ba -4.0287 6.9990 -0.3817 0
M  V30 77 Ga -3.1991 6.9596 -1.6013 0
M  V30 78 Ba -2.2805 6.9880 -2.7603 0
M  V30 79 Ba 3.9718 -6.7589 4.2258 0
M  V30 80 Ga 4.9228 -6.7600 3.0828 0
M  V30 81 Ba 5.8311 -6.7909 1.9093 0
M  V30 82 Ba 2.0067 -6.8925 3.0570 0
M  V30 83 Ga 2.9192 -6.8439 1.8688 0
M  V30 84 Ba 3.8921 -6.6783 0.7552 0
M  V30 85 Ba 3.4358 -5.0046 5.6483 0
M  V30 86 Ga 4.2093 -3.7716 5.3618 0
M  V30 87 Ba 4.7699 -2.5696 4.6981 0
M  V30 88 Ba 2.0501 -0.1623 -3.7732 0
M  V30 89 Ga 0.8661 0.5167 -4.4132 0
M  V30 90 Ba -0.1774 1.0777 -5.3510 0
M  V30 91 Ba 4.2857 -0.2907 -1.2450 0
M  V30 92 Ga 4.4512 -0.9125 0.0640 0
M  V30 93 Ba 4.8466 -1.3457 1.4005 0
M  V30 94 Ba 3.8205 -2.0729 -2.0603 0
M  V30 95 Ga 4.3981 -3.2518 -1.2518 0
M  V30 96 Ba 5.0737 -4.5225 -0.7173 0
M  V30 97 Ba -1.5437 3.3343 -6.4018 0
M  V30 98 Ga -1.5040 4.5425 -5.5895 0
M  V30 99 Ba -1.5091 5.6831 -4.6933 0
M  V30 END ATOM
M  V30 BEGIN BOND
M  V30 1 1 1 2
M  V30 2 1 1 3
M  V30 3 1 1 4
M  V30 4 1 1 5
M  V30 5 1 6 7
M  V30 6 1 6 8
M  V30 7 1 6 9
M  V30 8 1 6 10
M  V30 9 1 11 12
M  V30 10 1 11 13
M  V30 11 1 11 14
M  V30 12 1 11 15
M  V30 13 1 16 17
M  V30 14 1 16 18
M  V30 15 1 16 19
M  V30 16 1 16 20
M  V30 17 1 21 22
M  V30 18 1 21 23
M  V30 19 1 21 24
M  V30 20 1 21 25
M  V30 21 1 26 27
M  V30 22 1 26 28
M  V30 23 1 26 29
M  V30 24 1 26 30
M  V30 25 1 31 32
M  V30 26 1 31 33
M  V30 27 1 31 34
M  V30 28 1 31 35
M  V30 29 1 36 37
M  V30 30 1 36 38
M  V30 31 1 36 39
M  V30 32 1 36 40
M  V30 33 1 41 42
M  V30 34 1 41 43
M  V30 35 1 41 44
M  V30 36 1 41 45
M  V30 37 1 46 47
M  V30 38 1 47 48
M  V30 39 1 49 50
M  V30 40 1 50 51
M  V30 41 1 52 53
M  V30 42 1 53 54
M  V30 43 1 55 56
M  V30 44 1 56 57
M  V30 45 1 58 59
M  V30 46 1 59 60
M  V30 47 1 61 62
M  V30 48 1 62 63
M  V30 49 1 64 65
M  V30 50 1 65 66
M  V30 51 1 67 68
M  V30 52 1 68 69
M  V30 53 1 70 71
M  V30 54 1 71 72
M  V30 55 1 73 74
M  V30 56 1 74 75
M  V30 57 1 76 77
M  V30 58 1 77 78
M  V30 59 1 79 80
M  V30 60 1 80 81
M  V30 61 1 82 83
M  V30 62 1 83 84
M  V30 63 1 85 86
M  V30 64 1 86 87
M  V30 65 1 88 89
M  V30 66 1 89 90
M  V30 67 1 91 92
M  V30 68 1 92 93
M  V30 69 1 94 95
M  V30 70 1 95 96
M  V30 71 1 97 98
M  V30 72 1 98 99
M  V30 73 1 2 46
M  V30 74 1 3 94
M  V30 75 1 4 88
M  V30 76 1 5 91
M  V30 77 1 7 73
M  V30 78 1 8 82
M  V30 79 1 9 85
M  V30 80 1 10 79
M  V30 81 1 12 58
M  V30 82 1 13 70
M  V30 83 1 14 64
M  V30 84 1 15 76
M  V30 85 1 17 66
M  V30 86 1 18 55
M  V30 87 1 19 52
M  V30 88 1 20 61
M  V30 89 1 22 75
M  V30 90 1 23 72
M  V30 91 1 24 54
M  V30 92 1 25 49
M  V30 93 1 27 57
M  V30 94 1 28 97
M  V30 95 1 29 90
M  V30 96 1 30 63
M  V30 97 1 32 48
M  V30 98 1 33 99
M  V30 99 1 34 78
M  V30 100 1 35 60
M  V30 101 1 37 51
M  V30 102 1 38 67
M  V30 103 1 39 87
M  V30 104 1 40 93
M  V30 105 1 42 84
M  V30 106 1 43 96
M  V30 107 1 44 69
M  V30 108 1 45 81
M  V30 END BOND
M  V30 END CTAB
M  END

$$$$
