
     RDKit          3D

  0  0  0  0  0  0  0  0  0  0999 V3000
M  V30 BEGIN CTAB
M  V30 COUNTS 99 108 0 0 0
M  V30 BEGIN ATOM
M  V30 1 Pd 2.6762 1.6480 -5.3057 0
M  V30 2 Pb 3.3303 0.9141 -5.5245 0
M  V30 3 Pb 1.9250 1.0740 -5.6037 0
M  V30 4 Pb 3.3822 2.2341 -4.9100 0
M  V30 5 Pb 1.9784 2.3283 -5.0570 0
M  V30 6 Pd -3.8387 3.8270 -1.2815 0
M  V30 7 Pb -4.6087 3.8311 -0.6343 0
M  V30 8 Pb -4.2554 2.9980 -1.6347 0
M  V30 9 Pb -3.3757 4.5838 -0.8303 0
M  V30 10 Pb -3.0912 3.8364 -1.9580 0
M  V30 11 Pd -5.7386 1.9354 3.7801 0
M  V30 12 Pb -6.0785 2.3256 2.9205 0
M  V30 13 Pb -5.3327 1.6090 4.6245 0
M  V30 14 Pb -5.7458 0.9752 3.4341 0
M  V30 15 Pb -5.6754 2.8560 4.1587 0
M  V30 16 Pd -1.8871 -0.8251 -0.6626 0
M  V30 17 Pb -1.6972 -0.4291 0.2469 0
M  V30 18 Pb -2.8217 -0.4994 -0.7797 0
M  V30 19 Pb -2.1104 -1.5562 -1.3098 0
M  V30 20 Pb -1.8266 -0.7585 -1.6538 0
M  V30 21 Pd -2.8976 -3.4106 3.1498 0
M  V30 22 Pb -2.6327 -2.9900 4.0084 0
M  V30 23 Pb -3.1956 -3.9039 2.3430 0
M  V30 24 Pb -3.7201 -2.8041 3.0985 0
M  V30 25 Pb -2.0579 -3.9724 3.1114 0
M  V30 26 Pd 0.8077 -6.6020 -2.0862 0
M  V30 27 Pb -0.1250 -6.6516 -1.7517 0
M  V30 28 Pb 1.0981 -6.6406 -1.1258 0
M  V30 29 Pb 1.7256 -6.5006 -2.4752 0
M  V30 30 Pb 0.3746 -6.3461 -2.9407 0
M  V30 31 Pd 5.0777 -2.8245 -2.8795 0
M  V30 32 Pb 4.9853 -2.4272 -3.7993 0
M  V30 33 Pb 5.5761 -1.9933 -2.5944 0
M  V30 34 Pb 5.1778 -3.1724 -1.9514 0
M  V30 35 Pb 4.6889 -3.7066 -3.1582 0
M  V30 36 Pd 6.1113 1.6916 0.9134 0
M  V30 37 Pb 6.0553 2.4512 0.2702 0
M  V30 38 Pb 6.1278 0.8744 1.4816 0
M  V30 39 Pb 5.7740 2.2404 1.6758 0
M  V30 40 Pb 6.4009 1.1380 0.1212 0
M  V30 41 Pd 0.0158 4.5055 4.9686 0
M  V30 42 Pb -0.1533 4.9735 4.1047 0
M  V30 43 Pb 0.1420 3.6218 4.5011 0
M  V30 44 Pb -0.7011 5.0812 5.3496 0
M  V30 45 Pb 0.9737 4.3305 4.7410 0
M  V30 46 Ag -3.3400 -4.3440 1.7647 0
M  V30 47 Fe -2.2405 -5.5461 0.0525 0
M  V30 48 Ag -0.8287 -6.6012 -1.5224 0
M  V30 49 Ag 3.8503 2.6792 -4.5301 0
M  V30 50 Fe 4.9897 2.9518 -2.4666 0
M  V30 51 Ag 5.9962 2.9074 -0.3185 0
M  V30 52 Ag -5.5156 3.5113 4.4780 0
M  V30 53 Fe -3.5904 4.7198 5.1385 0
M  V30 54 Ag -1.3541 5.3919 5.5227 0
M  V30 55 Ag -1.3751 -0.1778 0.8896 0
M  V30 56 Fe -0.6646 1.4283 2.5056 0
M  V30 57 Ag 0.1011 2.9266 4.1984 0
M  V30 58 Ag -2.1812 -2.0485 -1.8740 0
M  V30 59 Fe -1.3001 -4.0053 -2.8804 0
M  V30 60 Ag -0.1072 -5.9904 -3.3770 0
M  V30 61 Ag 1.4195 2.8057 -4.8798 0
M  V30 62 Fe -0.5502 3.3155 -3.6389 0
M  V30 63 Ag -2.5248 3.9280 -2.4537 0
M  V30 64 Ag -4.9415 1.3112 5.1765 0
M  V30 65 Fe -3.5893 -0.6081 5.3506 0
M  V30 66 Ag -2.5709 -2.6065 4.6367 0
M  V30 67 Ag -1.4342 -4.3952 3.0004 0
M  V30 68 Fe -0.0578 -5.5200 1.4061 0
M  V30 69 Ag 1.1455 -6.5601 -0.3743 0
M  V30 70 Ag 5.2778 -3.2893 -1.2241 0
M  V30 71 Fe 5.7123 -1.8511 0.5975 0
M  V30 72 Ag 6.0999 0.1788 1.7389 0
M  V30 73 Ag 1.2998 0.6857 -5.6787 0
M  V30 74 Fe -0.3548 -0.1284 -4.2004 0
M  V30 75 Ag -1.7469 -0.7539 -2.3949 0
M  V30 76 Ag 5.4950 2.6362 2.2461 0
M  V30 77 Fe 3.5866 3.4302 3.4139 0
M  V30 78 Ag 1.7083 4.2464 4.6145 0
M  V30 79 Ag -2.9527 5.0741 -0.4614 0
M  V30 80 Fe -1.6223 5.3183 1.4849 0
M  V30 81 Ag -0.3512 5.3415 3.4854 0
M  V30 82 Ba 2.3807 -6.4248 -2.8371 0
M  V30 83 Ga 3.4056 -5.3819 -3.0595 0
M  V30 84 Ba 4.4806 -4.4067 -3.3437 0
M  V30 85 Ba -5.2411 3.7922 -0.2214 0
M  V30 86 Ga -5.7378 3.2236 1.0534 0
M  V30 87 Ba -6.3207 2.6903 2.3069 0
M  V30 88 Ba 6.0299 -1.4102 -2.4167 0
M  V30 89 Ga 6.2571 -0.3378 -1.4134 0
M  V30 90 Ba 6.6284 0.7812 -0.5084 0
M  V30 91 Ba -5.7820 0.2400 3.2065 0
M  V30 92 Ga -4.9900 -1.0326 3.1397 0
M  V30 93 Ba -4.3613 -2.3867 2.9917 0
M  V30 94 Ba 3.7794 0.3342 -5.7127 0
M  V30 95 Ga 4.3544 -0.8721 -5.0671 0
M  V30 96 Ba 4.9568 -2.0938 -4.4778 0
M  V30 97 Ba -4.5792 2.3394 -1.7534 0
M  V30 98 Ga -4.0846 1.0022 -1.3997 0
M  V30 99 Ba -3.5018 -0.2885 -1.0086 0
M  V30 END ATOM
M  V30 BEGIN BOND
M  V30 1 1 1 2
M  V30 2 1 1 3
M  V30 3 1 1 4
M  V30 4 1 1 5
M  V30 5 1 6 7
M  V30 6 1 6 8
M  V30 7 1 6 9
M  V30 8 1 6 10
M  V30 9 1 11 12
M  V30 10 1 11 13
M  V30 11 1 11 14
M  V30 12 1 11 15
M  V30 13 1 16 17
M  V30 14 1 16 18
M  V30 15 1 16 19
M  V30 16 1 16 20
M  V30 17 1 21 22
M  V30 18 1 21 23
M  V30 19 1 21 24
M  V30 20 1 21 25
M  V30 21 1 26 27
M  V30 22 1 26 28
M  V30 23 1 26 29
M  V30 24 1 26 30
M  V30 25 1 31 32
M  V30 26 1 31 33
M  V30 27 1 31 34
M  V30 28 1 31 35
M  V30 29 1 36 37
M  V30 30 1 36 38
M  V30 31 1 36 39
M  V30 32 1 36 40
M  V30 33 1 41 42
M  V30 34 1 41 43
M  V30 35 1 41 44
M  V30 36 1 41 45
M  V30 37 1 46 47
M  V30 38 1 47 48
M  V30 39 1 49 50
M  V30 40 1 50 51
M  V30 41 1 52 53
M  V30 42 1 53 54
M  V30 43 1 55 56
M  V30 44 1 56 57
M  V30 45 1 58 59
M  V30 46 1 59 60
M  V30 47 1 61 62
M  V30 48 1 62 63
M  V30 49 1 64 65
M  V30 50 1 65 66
M  V30 51 1 67 68
M  V30 52 1 68 69
M  V30 53 1 70 71
M  V30 54 1 71 72
M  V30 55 1 73 74
M  V30 56 1 74 75
M  V30 57 1 76 77
M  V30 58 1 77 78
M  V30 59 1 79 80
M  V30 60 1 80 81
M  V30 61 1 82 83
M  V30 62 1 83 84
M  V30 63 1 85 86
M  V30 64 1 86 87
M  V30 65 1 88 89
M  V30 66 1 89 90
M  V30 67 1 91 92
M  V30 68 1 92 93
M  V30 69 1 94 95
M  V30 70 1 95 96
M  V30 71 1 97 98
M  V30 72 1 98 99
M  V30 73 1 2 94
M  V30 74 1 3 73
M  V30 75 1 4 49
M  V30 76 1 5 61
M  V30 77 1 7 85
M  V30 78 1 8 97
M  V30 79 1 9 79
M  V30 80 1 10 63
M  V30 81 1 12 87
M  V30 82 1 13 64
M  V30 83 1 14 91
M  V30 84 1 15 52
M  V30 85 1 17 55
M  V30 86 1 18 99
M  V30 87 1 19 58
M  V30 88 1 20 75
M  V30 89 1 22 66
M  V30 90 1 23 46
M  V30 91 1 24 93
M  V30 92 1 25 67
M  V30 93 1 27 48
M  V30 94 1 28 69
M  V30 95 1 29 82
M  V30 96 1 30 60
M  V30 97 1 32 96
M  V30 98 1 33 88
M  V30 99 1 34 70
M  V30 100 1 35 84
M  V30 101 1 37 51
M  V30 102 1 38 72
M  V30 103 1 39 76
M  V30 104 1 40 90
M  V30 105 1 42 81
M  V30 106 1 43 57
M  V30 107 1 44 54
M  V30 108 1 45 78
M  V30 END BOND
M  V30 END CTAB
M  END

$$$$
