
     RDKit          3D

  0  0  0  0  0  0  0  0  0  0999 V3000
M  V30 BEGIN CTAB
M  V30 COUNTS 99 108 0 0 0
M  V30 BEGIN ATOM
M  V30 1 Pd 3.0314 -1.9772 1.8421 0
M  V30 2 Pb 2.7369 -2.3508 2.7193 0
M  V30 3 Pb 2.2200 -2.4201 1.4627 0
M  V30 4 Pb 3.8032 -1.5221 2.2891 0
M  V30 5 Pb 3.2494 -1.5283 0.9717 0
M  V30 6 Pd -1.7966 -4.1934 -6.9107 0
M  V30 7 Pb -2.3398 -3.3535 -6.9426 0
M  V30 8 Pb -1.2650 -5.0338 -6.8362 0
M  V30 9 Pb -1.1163 -3.8337 -7.5498 0
M  V30 10 Pb -2.3766 -4.5570 -6.1797 0
M  V30 11 Pd -4.3067 2.6216 2.6241 0
M  V30 12 Pb -4.2216 1.7840 3.2021 0
M  V30 13 Pb -4.2706 2.0808 1.7794 0
M  V30 14 Pb -4.3456 3.4677 2.0920 0
M  V30 15 Pb -4.4138 3.1642 3.4484 0
M  V30 16 Pd -0.5204 6.1435 1.1010 0
M  V30 17 Pb -1.5208 6.1149 1.0595 0
M  V30 18 Pb -0.5049 6.3259 2.0866 0
M  V30 19 Pb -0.4781 5.9021 0.1340 0
M  V30 20 Pb 0.4764 6.1526 1.1418 0
M  V30 21 Pd -2.0122 1.1256 -4.7606 0
M  V30 22 Pb -2.4833 0.4203 -5.2961 0
M  V30 23 Pb -2.5987 0.9481 -3.9667 0
M  V30 24 Pb -1.5948 1.9048 -4.2954 0
M  V30 25 Pb -1.3701 1.2742 -5.5116 0
M  V30 26 Pd 4.0892 3.8789 6.0076 0
M  V30 27 Pb 3.3424 4.5362 6.1267 0
M  V30 28 Pb 3.8049 3.3847 6.8282 0
M  V30 29 Pb 4.7253 3.1490 5.7622 0
M  V30 30 Pb 4.2906 4.3383 5.1466 0
M  V30 31 Pd -1.6930 -0.0069 7.2860 0
M  V30 32 Pb -1.1559 -0.7728 6.9338 0
M  V30 33 Pb -0.9440 0.1894 7.9159 0
M  V30 34 Pb -2.1872 0.7782 7.6394 0
M  V30 35 Pb -2.3916 -0.1099 6.5505 0
M  V30 36 Pd 2.5303 -1.3479 -5.8468 0
M  V30 37 Pb 2.0858 -0.5388 -6.2338 0
M  V30 38 Pb 2.9691 -2.1438 -5.4270 0
M  V30 39 Pb 2.2180 -1.8449 -6.6605 0
M  V30 40 Pb 2.8172 -0.8614 -5.0206 0
M  V30 41 Pd 0.7756 -6.4011 -1.2119 0
M  V30 42 Pb 0.8700 -7.0156 -1.9892 0
M  V30 43 Pb 0.6290 -5.6714 -0.5455 0
M  V30 44 Pb 1.7254 -6.1416 -1.3627 0
M  V30 45 Pb -0.2137 -6.5165 -1.2844 0
M  V30 46 Ag 2.4278 -2.5897 3.3572 0
M  V30 47 Fe 0.8776 -2.0286 5.0648 0
M  V30 48 Ag -0.6998 -1.3149 6.6886 0
M  V30 49 Ag -0.4149 5.6873 -0.5793 0
M  V30 50 Fe -0.8736 4.0925 -2.2761 0
M  V30 51 Ag -1.2983 2.5322 -4.0131 0
M  V30 52 Ag -0.3820 6.4199 2.8234 0
M  V30 53 Fe 1.1007 5.7932 4.5745 0
M  V30 54 Ag 2.7411 4.9874 6.0967 0
M  V30 55 Ag -4.4625 3.4708 4.1196 0
M  V30 56 Fe -3.6887 2.8073 6.2406 0
M  V30 57 Ag -2.5666 1.4010 7.7569 0
M  V30 58 Ag -2.6936 -4.8626 -5.5709 0
M  V30 59 Fe -2.0546 -5.7479 -3.4613 0
M  V30 60 Ag -0.9271 -6.5031 -1.5121 0
M  V30 61 Ag -0.8842 -5.6555 -6.6766 0
M  V30 62 Fe 0.0940 -6.7346 -4.8096 0
M  V30 63 Ag 0.8816 -7.3376 -2.6600 0
M  V30 64 Ag 1.2170 6.1370 1.2395 0
M  V30 65 Fe 2.9116 5.4660 2.7552 0
M  V30 66 Ag 4.3296 4.6754 4.4822 0
M  V30 67 Ag 4.3430 -1.1672 2.6726 0
M  V30 68 Fe 4.8599 0.6659 4.0922 0
M  V30 69 Ag 5.1154 2.5720 5.4864 0
M  V30 70 Ag 3.3827 -1.1420 0.3385 0
M  V30 71 Fe 3.2225 -0.8422 -2.0149 0
M  V30 72 Ag 3.0522 -0.5668 -4.3707 0
M  V30 73 Ag 3.2965 -2.6760 -5.0093 0
M  V30 74 Fe 3.0016 -4.3203 -3.3214 0
M  V30 75 Ag 2.3633 -5.8941 -1.6623 0
M  V30 76 Ag 3.5185 2.9930 7.3986 0
M  V30 77 Fe 1.6525 1.6637 8.0168 0
M  V30 78 Ag -0.3342 0.3968 8.2963 0
M  V30 79 Ag -4.2938 1.6836 1.1394 0
M  V30 80 Fe -3.6317 1.2623 -1.1063 0
M  V30 81 Ag -3.0065 0.7930 -3.3529 0
M  V30 82 Ba -2.7773 -2.7434 -6.9449 0
M  V30 83 Ga -2.7802 -1.4041 -6.3206 0
M  V30 84 Ba -2.8702 -0.0478 -5.7414 0
M  V30 85 Ba -0.8472 1.3833 -6.0370 0
M  V30 86 Ga 0.4449 0.7249 -6.3082 0
M  V30 87 Ba 1.7308 0.0431 -6.5493 0
M  V30 88 Ba -4.1867 1.1449 3.6315 0
M  V30 89 Ga -3.5038 0.5409 4.8220 0
M  V30 90 Ba -2.9089 -0.1927 5.9868 0
M  V30 91 Ba -4.3553 4.1241 1.7287 0
M  V30 92 Ga -3.3147 5.1039 1.3579 0
M  V30 93 Ba -2.2686 6.0792 0.9909 0
M  V30 94 Ba -0.5432 -3.5999 -7.9750 0
M  V30 95 Ga 0.7058 -2.8794 -7.6484 0
M  V30 96 Ba 1.9456 -2.1584 -7.2893 0
M  V30 97 Ba 1.5728 -2.7537 1.2845 0
M  V30 98 Ga 1.0683 -3.9384 0.5658 0
M  V30 99 Ba 0.4420 -5.0861 -0.1162 0
M  V30 END ATOM
M  V30 BEGIN BOND
M  V30 1 1 1 2
M  V30 2 1 1 3
M  V30 3 1 1 4
M  V30 4 1 1 5
M  V30 5 1 6 7
M  V30 6 1 6 8
M  V30 7 1 6 9
M  V30 8 1 6 10
M  V30 9 1 11 12
M  V30 10 1 11 13
M  V30 11 1 11 14
M  V30 12 1 11 15
M  V30 13 1 16 17
M  V30 14 1 16 18
M  V30 15 1 16 19
M  V30 16 1 16 20
M  V30 17 1 21 22
M  V30 18 1 21 23
M  V30 19 1 21 24
M  V30 20 1 21 25
M  V30 21 1 26 27
M  V30 22 1 26 28
M  V30 23 1 26 29
M  V30 24 1 26 30
M  V30 25 1 31 32
M  V30 26 1 31 33
M  V30 27 1 31 34
M  V30 28 1 31 35
M  V30 29 1 36 37
M  V30 30 1 36 38
M  V30 31 1 36 39
M  V30 32 1 36 40
M  V30 33 1 41 42
M  V30 34 1 41 43
M  V30 35 1 41 44
M  V30 36 1 41 45
M  V30 37 1 46 47
M  V30 38 1 47 48
M  V30 39 1 49 50
M  V30 40 1 50 51
M  V30 41 1 52 53
M  V30 42 1 53 54
M  V30 43 1 55 56
M  V30 44 1 56 57
M  V30 45 1 58 59
M  V30 46 1 59 60
M  V30 47 1 61 62
M  V30 48 1 62 63
M  V30 49 1 64 65
M  V30 50 1 65 66
M  V30 51 1 67 68
M  V30 52 1 68 69
M  V30 53 1 70 71
M  V30 54 1 71 72
M  V30 55 1 73 74
M  V30 56 1 74 75
M  V30 57 1 76 77
M  V30 58 1 77 78
M  V30 59 1 79 80
M  V30 60 1 80 81
M  V30 61 1 82 83
M  V30 62 1 83 84
M  V30 63 1 85 86
M  V30 64 1 86 87
M  V30 65 1 88 89
M  V30 66 1 89 90
M  V30 67 1 91 92
M  V30 68 1 92 93
M  V30 69 1 94 95
M  V30 70 1 95 96
M  V30 71 1 97 98
M  V30 72 1 98 99
M  V30 73 1 2 46
M  V30 74 1 3 97
M  V30 75 1 4 67
M  V30 76 1 5 70
M  V30 77 1 7 82
M  V30 78 1 8 61
M  V30 79 1 9 94
M  V30 80 1 10 58
M  V30 81 1 12 88
M  V30 82 1 13 79
M  V30 83 1 14 91
M  V30 84 1 15 55
M  V30 85 1 17 93
M  V30 86 1 18 52
M  V30 87 1 19 49
M  V30 88 1 20 64
M  V30 89 1 22 84
M  V30 90 1 23 81
M  V30 91 1 24 51
M  V30 92 1 25 85
M  V30 93 1 27 54
M  V30 94 1 28 76
M  V30 95 1 29 69
M  V30 96 1 30 66
M  V30 97 1 32 48
M  V30 98 1 33 78
M  V30 99 1 34 57
M  V30 100 1 35 90
M  V30 101 1 37 87
M  V30 102 1 38 73
M  V30 103 1 39 96
M  V30 104 1 40 72
M  V30 105 1 42 63
M  V30 106 1 43 99
M  V30 107 1 44 75
M  V30 108 1 45 60
M  V30 END BOND
M  V30 END CTAB
M  END

$$$$
