
     RDKit          3D

  0  0  0  0  0  0  0  0  0  0999 V3000
M  V30 BEGIN CTAB
M  V30 COUNTS 99 108 0 0 0
M  V30 BEGIN ATOM
M  V30 1 Pd 2.5094 -4.9429 -2.5565 0
M  V30 2 Pb 3.0691 -4.4839 -3.2484 0
M  V30 3 Pb 3.3005 -4.9446 -1.9468 0
M  V30 4 Pb 1.9324 -5.3432 -1.8415 0
M  V30 5 Pb 1.7168 -4.8805 -3.1580 0
M  V30 6 Pd 3.0960 2.9232 3.8258 0
M  V30 7 Pb 3.9421 2.4960 3.5152 0
M  V30 8 Pb 3.5712 3.7932 3.9363 0
M  V30 9 Pb 2.2521 3.3816 4.1126 0
M  V30 10 Pb 2.6315 2.0646 3.6032 0
M  V30 11 Pd 1.4065 6.7355 1.4954 0
M  V30 12 Pb 0.5348 6.6749 1.0217 0
M  V30 13 Pb 0.9554 6.5168 2.3592 0
M  V30 14 Pb 2.2729 6.7805 1.9906 0
M  V30 15 Pb 1.8847 6.7617 0.5997 0
M  V30 16 Pd -2.1258 0.1953 -3.1387 0
M  V30 17 Pb -3.1205 0.1318 -3.0638 0
M  V30 18 Pb -2.1338 -0.6270 -3.7002 0
M  V30 19 Pb -2.0701 0.9660 -2.4975 0
M  V30 20 Pb -1.1333 0.1989 -3.2720 0
M  V30 21 Pd 5.8716 -1.0745 -1.9119 0
M  V30 22 Pb 6.1270 -0.6656 -1.0384 0
M  V30 23 Pb 5.9098 -0.1619 -2.3274 0
M  V30 24 Pb 5.5950 -1.5000 -2.7743 0
M  V30 25 Pb 5.8356 -1.9774 -1.4812 0
M  V30 26 Pd -3.7151 -4.6900 2.3769 0
M  V30 27 Pb -2.8834 -5.0031 1.9088 0
M  V30 28 Pb -4.2959 -5.1857 1.7234 0
M  V30 29 Pb -3.1838 -4.1144 3.0043 0
M  V30 30 Pb -4.5405 -4.4785 2.8983 0
M  V30 31 Pd 2.5248 3.2862 -3.0172 0
M  V30 32 Pb 2.7121 4.2125 -2.6380 0
M  V30 33 Pb 1.5561 3.5077 -3.0367 0
M  V30 34 Pb 3.5004 3.0563 -3.0455 0
M  V30 35 Pb 2.3022 2.3616 -3.3147 0
M  V30 36 Pd -7.8442 -2.8275 0.6490 0
M  V30 37 Pb -7.8714 -1.9014 1.0092 0
M  V30 38 Pb -7.8624 -3.1732 1.5810 0
M  V30 39 Pb -7.6030 -3.7464 0.3340 0
M  V30 40 Pb -7.7105 -2.4260 -0.2538 0
M  V30 41 Pd -1.8298 0.4671 2.2530 0
M  V30 42 Pb -0.8439 0.3070 2.2892 0
M  V30 43 Pb -1.7480 1.1473 1.5180 0
M  V30 44 Pb -1.9180 -0.2619 2.9384 0
M  V30 45 Pb -2.8126 0.6441 2.2734 0
M  V30 46 Ag -0.0363 6.5255 0.5764 0
M  V30 47 Fe -0.1069 5.1713 -1.3463 0
M  V30 48 Ag 0.8623 3.7516 -2.9534 0
M  V30 49 Ag -3.8600 0.0075 -3.0583 0
M  V30 50 Fe -5.7471 -0.9960 -2.0257 0
M  V30 51 Ag -7.5372 -2.0454 -0.8734 0
M  V30 52 Ag 4.5556 2.1644 3.2464 0
M  V30 53 Fe 5.4917 0.9052 1.4677 0
M  V30 54 Ag 6.2888 -0.3505 -0.3800 0
M  V30 55 Ag -7.7097 -1.2286 1.2815 0
M  V30 56 Fe -5.7214 -0.0674 1.8418 0
M  V30 57 Ag -3.5500 0.7732 2.2860 0
M  V30 58 Ag 1.4904 -5.6228 -1.3005 0
M  V30 59 Fe -0.4019 -5.4135 0.1259 0
M  V30 60 Ag -2.2678 -5.3086 1.5977 0
M  V30 61 Ag 1.1153 -4.7543 -3.5816 0
M  V30 62 Fe -0.5663 -3.1326 -3.9746 0
M  V30 63 Ag -2.0419 -1.2808 -4.0455 0
M  V30 64 Ba -2.8323 -3.6501 3.4829 0
M  V30 65 Ga -2.3873 -2.2380 3.4486 0
M  V30 66 Ba -1.9348 -0.8279 3.4375 0
M  V30 67 Ba 1.6544 3.7938 4.3102 0
M  V30 68 Ga 1.1003 5.0219 3.7062 0
M  V30 69 Ba 0.6625 6.2357 2.9888 0
M  V30 70 Ba 3.9040 -4.8927 -1.5065 0
M  V30 71 Ga 4.8692 -3.7945 -1.3128 0
M  V30 72 Ba 5.7980 -2.6583 -1.1664 0
M  V30 73 Ba 3.4881 -4.1057 -3.7444 0
M  V30 74 Ga 4.4365 -2.9828 -3.6029 0
M  V30 75 Ba 5.3734 -1.8607 -3.3943 0
M  V30 76 Ba -5.1783 -4.3716 3.2767 0
M  V30 77 Ga -6.5040 -3.9007 2.8525 0
M  V30 78 Ba -7.7637 -3.4067 2.2802 0
M  V30 79 Ba 2.3601 1.4062 3.3625 0
M  V30 80 Ga 1.0973 0.8138 2.8793 0
M  V30 81 Ba -0.1191 0.1399 2.3839 0
M  V30 82 Ba -4.7783 -5.5057 1.2380 0
M  V30 83 Ga -6.0558 -5.0196 0.6671 0
M  V30 84 Ba -7.3150 -4.4208 0.1676 0
M  V30 85 Ba 5.9666 0.5364 -2.6046 0
M  V30 86 Ga 5.0754 1.6919 -2.8466 0
M  V30 87 Ba 4.2288 2.8764 -3.1082 0
M  V30 88 Ba -1.9877 1.5223 -1.9946 0
M  V30 89 Ga -1.8588 1.5851 -0.5200 0
M  V30 90 Ba -1.7296 1.6495 0.9546 0
M  V30 91 Ba 3.8913 4.4685 3.9383 0
M  V30 92 Ga 3.4601 5.6675 3.2021 0
M  V30 93 Ba 2.8951 6.7694 2.4069 0
M  V30 94 Ba -0.4025 0.1241 -3.4329 0
M  V30 95 Ga 0.8419 0.9143 -3.4571 0
M  V30 96 Ba 2.1115 1.6630 -3.4964 0
M  V30 97 Ba 2.2530 6.7460 -0.0721 0
M  V30 98 Ga 2.5171 5.7922 -1.1951 0
M  V30 99 Ba 2.8411 4.9196 -2.3672 0
M  V30 END ATOM
M  V30 BEGIN BOND
M  V30 1 1 1 2
M  V30 2 1 1 3
M  V30 3 1 1 4
M  V30 4 1 1 5
M  V30 5 1 6 7
M  V30 6 1 6 8
M  V30 7 1 6 9
M  V30 8 1 6 10
M  V30 9 1 11 12
M  V30 10 1 11 13
M  V30 11 1 11 14
M  V30 12 1 11 15
M  V30 13 1 16 17
M  V30 14 1 16 18
M  V30 15 1 16 19
M  V30 16 1 16 20
M  V30 17 1 21 22
M  V30 18 1 21 23
M  V30 19 1 21 24
M  V30 20 1 21 25
M  V30 21 1 26 27
M  V30 22 1 26 28
M  V30 23 1 26 29
M  V30 24 1 26 30
M  V30 25 1 31 32
M  V30 26 1 31 33
M  V30 27 1 31 34
M  V30 28 1 31 35
M  V30 29 1 36 37
M  V30 30 1 36 38
M  V30 31 1 36 39
M  V30 32 1 36 40
M  V30 33 1 41 42
M  V30 34 1 41 43
M  V30 35 1 41 44
M  V30 36 1 41 45
M  V30 37 1 46 47
M  V30 38 1 47 48
M  V30 39 1 49 50
M  V30 40 1 50 51
M  V30 41 1 52 53
M  V30 42 1 53 54
M  V30 43 1 55 56
M  V30 44 1 56 57
M  V30 45 1 58 59
M  V30 46 1 59 60
M  V30 47 1 61 62
M  V30 48 1 62 63
M  V30 49 1 64 65
M  V30 50 1 65 66
M  V30 51 1 67 68
M  V30 52 1 68 69
M  V30 53 1 70 71
M  V30 54 1 71 72
M  V30 55 1 73 74
M  V30 56 1 74 75
M  V30 57 1 76 77
M  V30 58 1 77 78
M  V30 59 1 79 80
M  V30 60 1 80 81
M  V30 61 1 82 83
M  V30 62 1 83 84
M  V30 63 1 85 86
M  V30 64 1 86 87
M  V30 65 1 88 89
M  V30 66 1 89 90
M  V30 67 1 91 92
M  V30 68 1 92 93
M  V30 69 1 94 95
M  V30 70 1 95 96
M  V30 71 1 97 98
M  V30 72 1 98 99
M  V30 73 1 2 73
M  V30 74 1 3 70
M  V30 75 1 4 58
M  V30 76 1 5 61
M  V30 77 1 7 52
M  V30 78 1 8 91
M  V30 79 1 9 67
M  V30 80 1 10 79
M  V30 81 1 12 46
M  V30 82 1 13 69
M  V30 83 1 14 93
M  V30 84 1 15 97
M  V30 85 1 17 49
M  V30 86 1 18 63
M  V30 87 1 19 88
M  V30 88 1 20 94
M  V30 89 1 22 54
M  V30 90 1 23 85
M  V30 91 1 24 75
M  V30 92 1 25 72
M  V30 93 1 27 60
M  V30 94 1 28 82
M  V30 95 1 29 64
M  V30 96 1 30 76
M  V30 97 1 32 99
M  V30 98 1 33 48
M  V30 99 1 34 87
M  V30 100 1 35 96
M  V30 101 1 37 55
M  V30 102 1 38 78
M  V30 103 1 39 84
M  V30 104 1 40 51
M  V30 105 1 42 81
M  V30 106 1 43 90
M  V30 107 1 44 66
M  V30 108 1 45 57
M  V30 END BOND
M  V30 END CTAB
M  END

$$$$
