
     RDKit          3D

  0  0  0  0  0  0  0  0  0  0999 V3000
M  V30 BEGIN CTAB
M  V30 COUNTS 99 108 0 0 0
M  V30 BEGIN ATOM
M  V30 1 Pd -0.6917 3.0653 -3.1806 0
M  V30 2 Pb -1.4597 3.1970 -3.8132 0
M  V30 3 Pb 0.0917 2.9203 -2.5788 0
M  V30 4 Pb -0.5952 4.0482 -3.0072 0
M  V30 5 Pb -0.7303 2.0813 -3.3582 0
M  V30 6 Pd 7.3463 -3.7902 -0.1969 0
M  V30 7 Pb 6.7592 -4.0660 0.5660 0
M  V30 8 Pb 7.6270 -2.9734 0.3081 0
M  V30 9 Pb 6.9990 -4.5128 -0.7933 0
M  V30 10 Pb 7.9385 -3.5029 -0.9457 0
M  V30 11 Pd -6.7019 -2.0312 2.1141 0
M  V30 12 Pb -6.6440 -2.1474 1.1204 0
M  V30 13 Pb -6.1399 -2.8403 2.2828 0
M  V30 14 Pb -6.6803 -1.8316 3.0932 0
M  V30 15 Pb -7.2267 -1.2024 1.9314 0
M  V30 16 Pd -2.0691 1.7051 6.1384 0
M  V30 17 Pb -2.8940 1.1989 6.3868 0
M  V30 18 Pb -1.2852 2.2083 5.7658 0
M  V30 19 Pb -1.5273 0.8813 6.3107 0
M  V30 20 Pb -2.6124 2.5175 5.9392 0
M  V30 21 Pd 0.4121 -4.9465 3.2897 0
M  V30 22 Pb 1.4112 -4.9000 3.3216 0
M  V30 23 Pb -0.5842 -5.0287 3.2477 0
M  V30 24 Pb 0.3534 -4.3923 4.1205 0
M  V30 25 Pb 0.4796 -5.4297 2.4198 0
M  V30 26 Pd -1.7688 6.6020 0.8738 0
M  V30 27 Pb -1.0410 6.1952 1.4323 0
M  V30 28 Pb -2.5377 6.9181 0.3235 0
M  V30 29 Pb -1.2136 6.6308 0.0414 0
M  V30 30 Pb -2.3530 6.5208 1.6779 0
M  V30 31 Pd -6.1942 2.8305 -3.1356 0
M  V30 32 Pb -5.5016 2.9236 -3.8526 0
M  V30 33 Pb -6.1549 3.8171 -2.9964 0
M  V30 34 Pb -6.8316 2.7385 -2.3731 0
M  V30 35 Pb -6.1939 1.8298 -3.1842 0
M  V30 36 Pd 3.1589 -3.6741 -3.5344 0
M  V30 37 Pb 2.6503 -4.3509 -3.0051 0
M  V30 38 Pb 3.6545 -2.9744 -4.0559 0
M  V30 39 Pb 3.9711 -4.2486 -3.3999 0
M  V30 40 Pb 2.3226 -3.1341 -3.6445 0
M  V30 41 Pd 6.4937 0.2842 -2.3060 0
M  V30 42 Pb 6.9328 0.3308 -1.4076 0
M  V30 43 Pb 5.7009 0.7794 -1.9535 0
M  V30 44 Pb 6.0343 0.1063 -3.1757 0
M  V30 45 Pb 7.2751 -0.2370 -2.6371 0
M  V30 46 Ag 6.3391 -4.2462 1.1623 0
M  V30 47 Fe 4.2400 -4.5645 2.2295 0
M  V30 48 Ag 2.1619 -4.8940 3.3338 0
M  V30 49 Ag 0.5503 -5.7313 1.7398 0
M  V30 50 Fe 1.3871 -5.3728 -0.4508 0
M  V30 51 Ag 2.2835 -4.8487 -2.5837 0
M  V30 52 Ag -1.1560 0.2403 6.4338 0
M  V30 53 Fe -0.4005 -1.8561 5.6094 0
M  V30 54 Ag 0.3224 -3.9350 4.7149 0
M  V30 55 Ag -0.7730 2.6290 5.4067 0
M  V30 56 Fe -0.5335 4.2436 3.6745 0
M  V30 57 Ag -0.5778 5.8389 1.9087 0
M  V30 58 Ag -7.5743 -0.5770 1.7146 0
M  V30 59 Fe -7.5441 1.0966 0.0342 0
M  V30 60 Ag -7.2573 2.6060 -1.7729 0
M  V30 61 Ag -6.5851 -2.1274 0.3704 0
M  V30 62 Fe -6.3944 -0.6346 -1.4710 0
M  V30 63 Ag -6.2152 1.0817 -3.1074 0
M  V30 64 Ag -2.9661 3.1422 5.7325 0
M  V30 65 Fe -2.9840 4.8420 4.0796 0
M  V30 66 Ag -2.7547 6.3831 2.2924 0
M  V30 67 Ag -6.5840 -1.6414 3.8116 0
M  V30 68 Fe -5.1395 -0.4519 5.2726 0
M  V30 69 Ag -3.5240 0.8036 6.4765 0
M  V30 70 Ag -0.7313 1.3435 -3.4970 0
M  V30 71 Fe 0.4740 -0.7014 -3.6091 0
M  V30 72 Ag 1.6853 -2.7428 -3.7195 0
M  V30 73 Ag 0.6933 2.8201 -2.1450 0
M  V30 74 Fe 2.8999 1.9806 -1.9002 0
M  V30 75 Ag 5.1062 1.1363 -1.6703 0
M  V30 76 Ag -3.1202 7.0613 -0.1208 0
M  V30 77 Fe -4.6811 5.9619 -1.5254 0
M  V30 78 Ag -6.0584 4.5376 -2.8264 0
M  V30 79 Ag -5.6997 -3.4279 2.4332 0
M  V30 80 Fe -3.5136 -4.2745 2.8138 0
M  V30 81 Ag -1.3273 -5.1204 3.1951 0
M  V30 82 Ba -2.0174 3.2554 -4.3170 0
M  V30 83 Ga -3.4918 3.1430 -4.3289 0
M  V30 84 Ba -4.9661 3.0363 -4.3676 0
M  V30 85 Ba 8.3527 -3.2395 -1.5080 0
M  V30 86 Ga 8.1803 -1.9770 -2.2356 0
M  V30 87 Ba 7.8399 -0.6815 -2.8344 0
M  V30 88 Ba 7.7991 -2.3049 0.6033 0
M  V30 89 Ga 7.5659 -0.9741 0.0075 0
M  V30 90 Ba 7.2580 0.2654 -0.7336 0
M  V30 91 Ba 6.7405 -4.9840 -1.3163 0
M  V30 92 Ga 5.6338 -4.8696 -2.2899 0
M  V30 93 Ba 4.5258 -4.7403 -3.2600 0
M  V30 94 Ba -0.4486 4.7721 -2.8607 0
M  V30 95 Ga -0.6597 5.7076 -1.7358 0
M  V30 96 Ba -0.8617 6.6582 -0.6220 0
M  V30 97 Ba 3.9736 -2.4165 -4.4497 0
M  V30 98 Ga 4.8397 -1.2582 -4.1448 0
M  V30 99 Ba 5.7082 -0.1084 -3.8162 0
M  V30 END ATOM
M  V30 BEGIN BOND
M  V30 1 1 1 2
M  V30 2 1 1 3
M  V30 3 1 1 4
M  V30 4 1 1 5
M  V30 5 1 6 7
M  V30 6 1 6 8
M  V30 7 1 6 9
M  V30 8 1 6 10
M  V30 9 1 11 12
M  V30 10 1 11 13
M  V30 11 1 11 14
M  V30 12 1 11 15
M  V30 13 1 16 17
M  V30 14 1 16 18
M  V30 15 1 16 19
M  V30 16 1 16 20
M  V30 17 1 21 22
M  V30 18 1 21 23
M  V30 19 1 21 24
M  V30 20 1 21 25
M  V30 21 1 26 27
M  V30 22 1 26 28
M  V30 23 1 26 29
M  V30 24 1 26 30
M  V30 25 1 31 32
M  V30 26 1 31 33
M  V30 27 1 31 34
M  V30 28 1 31 35
M  V30 29 1 36 37
M  V30 30 1 36 38
M  V30 31 1 36 39
M  V30 32 1 36 40
M  V30 33 1 41 42
M  V30 34 1 41 43
M  V30 35 1 41 44
M  V30 36 1 41 45
M  V30 37 1 46 47
M  V30 38 1 47 48
M  V30 39 1 49 50
M  V30 40 1 50 51
M  V30 41 1 52 53
M  V30 42 1 53 54
M  V30 43 1 55 56
M  V30 44 1 56 57
M  V30 45 1 58 59
M  V30 46 1 59 60
M  V30 47 1 61 62
M  V30 48 1 62 63
M  V30 49 1 64 65
M  V30 50 1 65 66
M  V30 51 1 67 68
M  V30 52 1 68 69
M  V30 53 1 70 71
M  V30 54 1 71 72
M  V30 55 1 73 74
M  V30 56 1 74 75
M  V30 57 1 76 77
M  V30 58 1 77 78
M  V30 59 1 79 80
M  V30 60 1 80 81
M  V30 61 1 82 83
M  V30 62 1 83 84
M  V30 63 1 85 86
M  V30 64 1 86 87
M  V30 65 1 88 89
M  V30 66 1 89 90
M  V30 67 1 91 92
M  V30 68 1 92 93
M  V30 69 1 94 95
M  V30 70 1 95 96
M  V30 71 1 97 98
M  V30 72 1 98 99
M  V30 73 1 2 82
M  V30 74 1 3 73
M  V30 75 1 4 94
M  V30 76 1 5 70
M  V30 77 1 7 46
M  V30 78 1 8 88
M  V30 79 1 9 91
M  V30 80 1 10 85
M  V30 81 1 12 61
M  V30 82 1 13 79
M  V30 83 1 14 67
M  V30 84 1 15 58
M  V30 85 1 17 69
M  V30 86 1 18 55
M  V30 87 1 19 52
M  V30 88 1 20 64
M  V30 89 1 22 48
M  V30 90 1 23 81
M  V30 91 1 24 54
M  V30 92 1 25 49
M  V30 93 1 27 57
M  V30 94 1 28 76
M  V30 95 1 29 96
M  V30 96 1 30 66
M  V30 97 1 32 84
M  V30 98 1 33 78
M  V30 99 1 34 60
M  V30 100 1 35 63
M  V30 101 1 37 51
M  V30 102 1 38 97
M  V30 103 1 39 93
M  V30 104 1 40 72
M  V30 105 1 42 90
M  V30 106 1 43 75
M  V30 107 1 44 99
M  V30 108 1 45 87
M  V30 END BOND
M  V30 END CTAB
M  END

$$$$
