
     RDKit          3D

  0  0  0  0  0  0  0  0  0  0999 V3000
M  V30 BEGIN CTAB
M  V30 COUNTS 99 108 0 0 0
M  V30 BEGIN ATOM
M  V30 1 Pd 5.9169 -5.5026 1.2221 0
M  V30 2 Pb 6.9151 -5.4936 1.2356 0
M  V30 3 Pb 5.9619 -6.1215 0.4319 0
M  V30 4 Pb 4.9195 -5.5692 1.2015 0
M  V30 5 Pb 5.8911 -4.8518 1.9877 0
M  V30 6 Pd -1.6084 -3.3471 -0.1812 0
M  V30 7 Pb -1.3934 -3.3955 -1.1568 0
M  V30 8 Pb -2.3809 -2.7533 -0.4070 0
M  V30 9 Pb -1.7891 -3.2801 0.8006 0
M  V30 10 Pb -0.8532 -3.9615 0.0454 0
M  V30 11 Pd -6.3746 3.7636 3.8850 0
M  V30 12 Pb -6.5223 4.7522 3.8005 0
M  V30 13 Pb -5.4221 3.8929 4.1671 0
M  V30 14 Pb -6.2549 2.7747 3.9469 0
M  V30 15 Pb -7.3031 3.6226 3.5492 0
M  V30 16 Pd -8.1879 6.0837 -0.1186 0
M  V30 17 Pb -8.2025 5.4903 -0.9385 0
M  V30 18 Pb -7.7135 6.7771 -0.6527 0
M  V30 19 Pb -8.6718 5.3899 0.4118 0
M  V30 20 Pb -8.0329 6.5896 0.7295 0
M  V30 21 Pd 8.5304 -4.6843 -2.7404 0
M  V30 22 Pb 8.9135 -3.7856 -2.5610 0
M  V30 23 Pb 8.0146 -4.3250 -3.5185 0
M  V30 24 Pb 8.0219 -5.5427 -2.7562 0
M  V30 25 Pb 8.9886 -4.9929 -1.9107 0
M  V30 26 Pd 5.5919 -0.0293 1.8795 0
M  V30 27 Pb 6.4244 -0.2411 1.3713 0
M  V30 28 Pb 4.7739 0.2367 2.3951 0
M  V30 29 Pb 5.4633 0.6956 1.2033 0
M  V30 30 Pb 5.7126 -0.8199 2.4869 0
M  V30 31 Pd -2.1226 0.4504 3.9823 0
M  V30 32 Pb -2.0261 -0.5321 3.8184 0
M  V30 33 Pb -2.2555 1.4247 4.1796 0
M  V30 34 Pb -1.1289 0.5836 4.0105 0
M  V30 35 Pb -3.1120 0.3201 3.9841 0
M  V30 36 Pd 2.7877 0.0621 -4.7085 0
M  V30 37 Pb 2.1073 -0.6266 -4.9479 0
M  V30 38 Pb 2.0629 0.7047 -4.4614 0
M  V30 39 Pb 3.4289 0.7029 -4.2904 0
M  V30 40 Pb 3.5218 -0.5697 -4.9656 0
M  V30 41 Pd -4.5002 3.1704 -3.3975 0
M  V30 42 Pb -3.5100 3.0532 -3.4714 0
M  V30 43 Pb -4.6035 2.2621 -2.9910 0
M  V30 44 Pb -5.4915 3.3466 -3.2720 0
M  V30 45 Pb -4.4001 4.1006 -3.7378 0
M  V30 46 Ag 7.6048 -4.0193 -4.0679 0
M  V30 47 Fe 5.8362 -2.5394 -4.6424 0
M  V30 48 Ag 4.0618 -1.0503 -5.1735 0
M  V30 49 Ag 9.0963 -3.1241 -2.2757 0
M  V30 50 Fe 8.1791 -1.6265 -0.6845 0
M  V30 51 Ag 7.0274 -0.3388 0.9386 0
M  V30 52 Ag -1.2196 -3.3824 -1.8862 0
M  V30 53 Fe 0.1205 -2.3586 -3.5563 0
M  V30 54 Ag 1.5849 -1.1594 -4.9877 0
M  V30 55 Ag 4.1874 0.4518 2.8151 0
M  V30 56 Fe 1.8782 0.5378 3.3767 0
M  V30 57 Ag -0.3904 0.7181 4.0669 0
M  V30 58 Ag -7.3033 7.1672 -1.1322 0
M  V30 59 Fe -5.7169 6.4532 -2.7220 0
M  V30 60 Ag -4.4279 4.8331 -3.8474 0
M  V30 61 Ag 4.1785 -5.6775 1.1644 0
M  V30 62 Fe 1.9523 -4.9980 0.6935 0
M  V30 63 Ag -0.3136 -4.4361 0.2586 0
M  V30 64 Ag -2.9625 -2.3262 -0.6127 0
M  V30 65 Fe -3.8163 -0.3584 -1.6333 0
M  V30 66 Ag -4.6963 1.6003 -2.6492 0
M  V30 67 Ag 5.4193 1.1562 0.6130 0
M  V30 68 Fe 4.6839 1.3051 -1.6398 0
M  V30 69 Ag 3.8283 1.1579 -3.8497 0
M  V30 70 Ag 1.5585 1.2236 -4.2657 0
M  V30 71 Fe -0.6427 2.0418 -3.9127 0
M  V30 72 Ag -2.7610 3.0336 -3.5022 0
M  V30 73 Ba -8.1879 5.0248 -1.5424 0
M  V30 74 Ga -7.1774 4.2737 -2.3438 0
M  V30 75 Ba -6.2390 3.4892 -3.1990 0
M  V30 76 Ba 6.0206 -6.5627 -0.1776 0
M  V30 77 Ga 6.7828 -6.4193 -1.4360 0
M  V30 78 Ba 7.5945 -6.1464 -2.6403 0
M  V30 79 Ba -7.9802 3.5400 3.2446 0
M  V30 80 Ga -8.5526 4.1793 2.0496 0
M  V30 81 Ba -9.0135 4.8820 0.8421 0
M  V30 82 Ba -4.6973 3.9701 4.3520 0
M  V30 83 Ga -3.5303 3.0623 4.3507 0
M  V30 84 Ba -2.3666 2.1503 4.3474 0
M  V30 85 Ba -6.1723 2.0320 3.9796 0
M  V30 86 Ga -5.0165 1.1203 3.9898 0
M  V30 87 Ba -3.8528 0.2189 3.9994 0
M  V30 88 Ba 5.8964 -4.3626 2.5629 0
M  V30 89 Ga 5.8365 -2.8919 2.7311 0
M  V30 90 Ba 5.7788 -1.4252 2.9322 0
M  V30 91 Ba 7.6612 -5.5265 1.1896 0
M  V30 92 Ga 8.5348 -5.3676 0.0172 0
M  V30 93 Ba 9.2678 -5.1774 -1.2433 0
M  V30 94 Ba -1.8689 -3.2621 1.5468 0
M  V30 95 Ga -1.9389 -2.2430 2.6125 0
M  V30 96 Ba -2.0137 -1.2772 3.7262 0
M  V30 97 Ba -6.6817 5.4827 3.7097 0
M  V30 98 Ga -7.2658 6.2358 2.5801 0
M  V30 99 Ba -7.8522 6.8908 1.3924 0
M  V30 END ATOM
M  V30 BEGIN BOND
M  V30 1 1 1 2
M  V30 2 1 1 3
M  V30 3 1 1 4
M  V30 4 1 1 5
M  V30 5 1 6 7
M  V30 6 1 6 8
M  V30 7 1 6 9
M  V30 8 1 6 10
M  V30 9 1 11 12
M  V30 10 1 11 13
M  V30 11 1 11 14
M  V30 12 1 11 15
M  V30 13 1 16 17
M  V30 14 1 16 18
M  V30 15 1 16 19
M  V30 16 1 16 20
M  V30 17 1 21 22
M  V30 18 1 21 23
M  V30 19 1 21 24
M  V30 20 1 21 25
M  V30 21 1 26 27
M  V30 22 1 26 28
M  V30 23 1 26 29
M  V30 24 1 26 30
M  V30 25 1 31 32
M  V30 26 1 31 33
M  V30 27 1 31 34
M  V30 28 1 31 35
M  V30 29 1 36 37
M  V30 30 1 36 38
M  V30 31 1 36 39
M  V30 32 1 36 40
M  V30 33 1 41 42
M  V30 34 1 41 43
M  V30 35 1 41 44
M  V30 36 1 41 45
M  V30 37 1 46 47
M  V30 38 1 47 48
M  V30 39 1 49 50
M  V30 40 1 50 51
M  V30 41 1 52 53
M  V30 42 1 53 54
M  V30 43 1 55 56
M  V30 44 1 56 57
M  V30 45 1 58 59
M  V30 46 1 59 60
M  V30 47 1 61 62
M  V30 48 1 62 63
M  V30 49 1 64 65
M  V30 50 1 65 66
M  V30 51 1 67 68
M  V30 52 1 68 69
M  V30 53 1 70 71
M  V30 54 1 71 72
M  V30 55 1 73 74
M  V30 56 1 74 75
M  V30 57 1 76 77
M  V30 58 1 77 78
M  V30 59 1 79 80
M  V30 60 1 80 81
M  V30 61 1 82 83
M  V30 62 1 83 84
M  V30 63 1 85 86
M  V30 64 1 86 87
M  V30 65 1 88 89
M  V30 66 1 89 90
M  V30 67 1 91 92
M  V30 68 1 92 93
M  V30 69 1 94 95
M  V30 70 1 95 96
M  V30 71 1 97 98
M  V30 72 1 98 99
M  V30 73 1 2 91
M  V30 74 1 3 76
M  V30 75 1 4 61
M  V30 76 1 5 88
M  V30 77 1 7 52
M  V30 78 1 8 64
M  V30 79 1 9 94
M  V30 80 1 10 63
M  V30 81 1 12 97
M  V30 82 1 13 82
M  V30 83 1 14 85
M  V30 84 1 15 79
M  V30 85 1 17 73
M  V30 86 1 18 58
M  V30 87 1 19 81
M  V30 88 1 20 99
M  V30 89 1 22 49
M  V30 90 1 23 46
M  V30 91 1 24 78
M  V30 92 1 25 93
M  V30 93 1 27 51
M  V30 94 1 28 55
M  V30 95 1 29 67
M  V30 96 1 30 90
M  V30 97 1 32 96
M  V30 98 1 33 84
M  V30 99 1 34 57
M  V30 100 1 35 87
M  V30 101 1 37 54
M  V30 102 1 38 70
M  V30 103 1 39 69
M  V30 104 1 40 48
M  V30 105 1 42 72
M  V30 106 1 43 66
M  V30 107 1 44 75
M  V30 108 1 45 60
M  V30 END BOND
M  V30 END CTAB
M  END

$$$$
