
     RDKit          3D

  0  0  0  0  0  0  0  0  0  0999 V3000
M  V30 BEGIN CTAB
M  V30 COUNTS 99 108 0 0 0
M  V30 BEGIN ATOM
M  V30 1 Pd 1.7181 -1.4602 -3.8749 0
M  V30 2 Pb 2.6300 -1.3694 -3.4821 0
M  V30 3 Pb 1.6644 -2.3681 -3.4489 0
M  V30 4 Pb 1.7654 -0.5510 -4.2977 0
M  V30 5 Pb 0.8883 -1.6105 -4.4148 0
M  V30 6 Pd -4.1628 -1.8467 -4.9817 0
M  V30 7 Pb -3.2119 -1.8265 -5.2883 0
M  V30 8 Pb -5.1172 -1.8955 -4.7196 0
M  V30 9 Pb -4.2690 -0.8499 -4.9989 0
M  V30 10 Pb -4.0825 -2.7865 -4.6649 0
M  V30 11 Pd -1.8072 0.1614 5.7854 0
M  V30 12 Pb -2.5009 -0.5611 5.7649 0
M  V30 13 Pb -2.4588 0.8435 5.4617 0
M  V30 14 Pb -1.0760 0.8419 5.7607 0
M  V30 15 Pb -1.1425 -0.5375 6.0220 0
M  V30 16 Pd -7.0014 0.9808 0.4959 0
M  V30 17 Pb -6.5013 1.5247 1.1659 0
M  V30 18 Pb -6.6699 1.5168 -0.2883 0
M  V30 19 Pb -7.2020 0.3005 1.1997 0
M  V30 20 Pb -7.5103 0.4328 -0.1539 0
M  V30 21 Pd 3.4345 4.5089 1.7862 0
M  V30 22 Pb 2.9689 4.0744 2.5583 0
M  V30 23 Pb 3.8813 5.0493 1.0828 0
M  V30 24 Pb 4.3138 4.4172 2.2607 0
M  V30 25 Pb 2.5903 4.5337 1.2345 0
M  V30 26 Pd -4.1536 -3.5083 2.1165 0
M  V30 27 Pb -3.3224 -4.0738 2.0748 0
M  V30 28 Pb -4.0418 -3.2767 3.0875 0
M  V30 29 Pb -5.0282 -3.0104 2.1755 0
M  V30 30 Pb -4.2770 -3.7899 1.1608 0
M  V30 31 Pd 1.6374 -4.0881 1.2706 0
M  V30 32 Pb 1.5851 -4.0028 2.2602 0
M  V30 33 Pb 2.5176 -3.6160 1.3571 0
M  V30 34 Pb 0.7536 -4.5628 1.2937 0
M  V30 35 Pb 1.6890 -4.1993 0.2714 0
M  V30 36 Pd 7.2808 1.2487 0.6639 0
M  V30 37 Pb 7.1653 0.5782 -0.0603 0
M  V30 38 Pb 7.2767 1.9518 1.3791 0
M  V30 39 Pb 7.5608 1.8896 -0.0481 0
M  V30 40 Pb 6.9318 0.5479 1.2824 0
M  V30 41 Pd 3.0088 4.2090 -3.3026 0
M  V30 42 Pb 2.2031 4.2739 -2.7069 0
M  V30 43 Pb 2.6057 3.4996 -3.8860 0
M  V30 44 Pb 3.4433 4.9149 -2.7560 0
M  V30 45 Pb 3.9060 4.1101 -3.7217 0
M  V30 46 Ag -4.4253 -0.1347 -4.8149 0
M  V30 47 Fe -5.3872 1.0162 -2.9623 0
M  V30 48 Ag -6.3905 1.7823 -0.9401 0
M  V30 49 Ag -4.0952 -3.3982 -4.2369 0
M  V30 50 Fe -4.1847 -3.8477 -1.9049 0
M  V30 51 Ag -4.2833 -4.0694 0.4598 0
M  V30 52 Ag -5.8126 -1.8992 -4.4672 0
M  V30 53 Fe -7.0683 -1.0530 -2.6581 0
M  V30 54 Ag -7.8053 0.0187 -0.6902 0
M  V30 55 Ag -2.9285 1.3373 5.1550 0
M  V30 56 Fe -4.5455 1.7018 3.4587 0
M  V30 57 Ag -6.1391 1.8846 1.7118 0
M  V30 58 Ag 3.3422 -1.3696 -3.2540 0
M  V30 59 Fe 5.1777 -0.6486 -1.9386 0
M  V30 60 Ag 6.9859 0.1012 -0.6019 0
M  V30 61 Ag 3.1464 -3.2688 1.5855 0
M  V30 62 Fe 4.8799 -1.6423 1.5983 0
M  V30 63 Ag 6.6368 -0.0414 1.6381 0
M  V30 64 Ag -0.6525 -1.0914 6.0856 0
M  V30 65 Fe 0.5343 -2.5876 4.6893 0
M  V30 66 Ag 1.5394 -3.8993 2.9960 0
M  V30 67 Ag 7.6660 2.2765 -0.6795 0
M  V30 68 Fe 6.3856 3.2416 -2.4251 0
M  V30 69 Ag 4.6435 4.0544 -3.8106 0
M  V30 70 Ag -0.5036 1.3239 5.7241 0
M  V30 71 Fe 1.0491 2.5565 4.4157 0
M  V30 72 Ag 2.6383 3.8200 3.1829 0
M  V30 73 Ba 1.7439 0.1105 -4.6584 0
M  V30 74 Ga 2.0573 1.5412 -4.4514 0
M  V30 75 Ba 2.3267 2.9933 -4.3684 0
M  V30 76 Ba -2.9736 -1.1461 5.7600 0
M  V30 77 Ga -3.4899 -2.1068 4.7600 0
M  V30 78 Ba -4.0478 -3.1066 3.8229 0
M  V30 79 Ba 4.9924 4.3214 2.5739 0
M  V30 80 Ga 6.1204 3.4143 2.2648 0
M  V30 81 Ba 7.2147 2.4832 1.9094 0
M  V30 82 Ba 4.1732 5.4889 0.5592 0
M  V30 83 Ga 4.0232 5.4925 -0.8974 0
M  V30 84 Ba 3.8131 5.4109 -2.3443 0
M  V30 85 Ba 1.6594 -3.0548 -3.1369 0
M  V30 86 Ga 1.6752 -3.6499 -1.7797 0
M  V30 87 Ba 1.6915 -4.3449 -0.4710 0
M  V30 88 Ba 0.3504 -1.7060 -4.9311 0
M  V30 89 Ga -1.1067 -1.7639 -5.1562 0
M  V30 90 Ba -2.5195 -1.8516 -5.5733 0
M  V30 91 Ba -2.7659 -4.5754 1.9698 0
M  V30 92 Ga -1.3179 -4.6877 1.6778 0
M  V30 93 Ba 0.1117 -4.9467 1.3871 0
M  V30 94 Ba -7.3031 -0.2731 1.6725 0
M  V30 95 Ga -6.4788 -1.4640 1.9838 0
M  V30 96 Ba -5.6906 -2.6717 2.3225 0
M  V30 97 Ba 1.9840 4.5363 0.7774 0
M  V30 98 Ga 1.7972 4.4379 -0.6941 0
M  V30 99 Ba 1.6730 4.3362 -2.1718 0
M  V30 END ATOM
M  V30 BEGIN BOND
M  V30 1 1 1 2
M  V30 2 1 1 3
M  V30 3 1 1 4
M  V30 4 1 1 5
M  V30 5 1 6 7
M  V30 6 1 6 8
M  V30 7 1 6 9
M  V30 8 1 6 10
M  V30 9 1 11 12
M  V30 10 1 11 13
M  V30 11 1 11 14
M  V30 12 1 11 15
M  V30 13 1 16 17
M  V30 14 1 16 18
M  V30 15 1 16 19
M  V30 16 1 16 20
M  V30 17 1 21 22
M  V30 18 1 21 23
M  V30 19 1 21 24
M  V30 20 1 21 25
M  V30 21 1 26 27
M  V30 22 1 26 28
M  V30 23 1 26 29
M  V30 24 1 26 30
M  V30 25 1 31 32
M  V30 26 1 31 33
M  V30 27 1 31 34
M  V30 28 1 31 35
M  V30 29 1 36 37
M  V30 30 1 36 38
M  V30 31 1 36 39
M  V30 32 1 36 40
M  V30 33 1 41 42
M  V30 34 1 41 43
M  V30 35 1 41 44
M  V30 36 1 41 45
M  V30 37 1 46 47
M  V30 38 1 47 48
M  V30 39 1 49 50
M  V30 40 1 50 51
M  V30 41 1 52 53
M  V30 42 1 53 54
M  V30 43 1 55 56
M  V30 44 1 56 57
M  V30 45 1 58 59
M  V30 46 1 59 60
M  V30 47 1 61 62
M  V30 48 1 62 63
M  V30 49 1 64 65
M  V30 50 1 65 66
M  V30 51 1 67 68
M  V30 52 1 68 69
M  V30 53 1 70 71
M  V30 54 1 71 72
M  V30 55 1 73 74
M  V30 56 1 74 75
M  V30 57 1 76 77
M  V30 58 1 77 78
M  V30 59 1 79 80
M  V30 60 1 80 81
M  V30 61 1 82 83
M  V30 62 1 83 84
M  V30 63 1 85 86
M  V30 64 1 86 87
M  V30 65 1 88 89
M  V30 66 1 89 90
M  V30 67 1 91 92
M  V30 68 1 92 93
M  V30 69 1 94 95
M  V30 70 1 95 96
M  V30 71 1 97 98
M  V30 72 1 98 99
M  V30 73 1 2 58
M  V30 74 1 3 85
M  V30 75 1 4 73
M  V30 76 1 5 88
M  V30 77 1 7 90
M  V30 78 1 8 52
M  V30 79 1 9 46
M  V30 80 1 10 49
M  V30 81 1 12 76
M  V30 82 1 13 55
M  V30 83 1 14 70
M  V30 84 1 15 64
M  V30 85 1 17 57
M  V30 86 1 18 48
M  V30 87 1 19 94
M  V30 88 1 20 54
M  V30 89 1 22 72
M  V30 90 1 23 82
M  V30 91 1 24 79
M  V30 92 1 25 97
M  V30 93 1 27 91
M  V30 94 1 28 78
M  V30 95 1 29 96
M  V30 96 1 30 51
M  V30 97 1 32 66
M  V30 98 1 33 61
M  V30 99 1 34 93
M  V30 100 1 35 87
M  V30 101 1 37 60
M  V30 102 1 38 81
M  V30 103 1 39 67
M  V30 104 1 40 63
M  V30 105 1 42 99
M  V30 106 1 43 75
M  V30 107 1 44 84
M  V30 108 1 45 69
M  V30 END BOND
M  V30 END CTAB
M  END

$$$$
