
     RDKit          3D

  0  0  0  0  0  0  0  0  0  0999 V3000
M  V30 BEGIN CTAB
M  V30 COUNTS 99 108 0 0 0
M  V30 BEGIN ATOM
M  V30 1 Pd 0.2372 4.0198 2.4669 0
M  V30 2 Pb -0.6511 3.5633 2.3640 0
M  V30 3 Pb 0.1317 3.9847 3.4623 0
M  V30 4 Pb 0.3378 4.1700 1.4849 0
M  V30 5 Pb 1.1504 4.4175 2.5520 0
M  V30 6 Pd 2.6770 -4.2083 6.0647 0
M  V30 7 Pb 2.5236 -4.7155 5.2206 0
M  V30 8 Pb 2.8171 -3.5681 6.8316 0
M  V30 9 Pb 3.6038 -4.0073 5.7639 0
M  V30 10 Pb 1.7217 -4.2975 6.3332 0
M  V30 11 Pd -4.7161 -3.4028 -4.2462 0
M  V30 12 Pb -5.4041 -2.9334 -4.7880 0
M  V30 13 Pb -4.0354 -3.9168 -3.7305 0
M  V30 14 Pb -4.2012 -3.6396 -5.0700 0
M  V30 15 Pb -5.1767 -3.0794 -3.3958 0
M  V30 16 Pd -0.1986 -1.2544 -6.4531 0
M  V30 17 Pb -0.8182 -2.0343 -6.5835 0
M  V30 18 Pb 0.4337 -0.4846 -6.3949 0
M  V30 19 Pb 0.5440 -1.8416 -6.1241 0
M  V30 20 Pb -0.9091 -0.6236 -6.7760 0
M  V30 21 Pd 2.3932 -3.4351 -1.7163 0
M  V30 22 Pb 2.3841 -3.7777 -0.7757 0
M  V30 23 Pb 1.6323 -4.0558 -1.8821 0
M  V30 24 Pb 2.4359 -3.2339 -2.6991 0
M  V30 25 Pb 3.0838 -2.7327 -1.5183 0
M  V30 26 Pd -0.9486 3.7367 -5.2516 0
M  V30 27 Pb -0.1096 3.3060 -5.5719 0
M  V30 28 Pb -1.7810 4.1436 -4.8796 0
M  V30 29 Pb -0.4361 4.1801 -4.5223 0
M  V30 30 Pb -1.4656 3.1988 -5.9199 0
M  V30 31 Pd -6.2345 1.3423 -1.2275 0
M  V30 32 Pb -5.6312 1.4050 -0.4289 0
M  V30 33 Pb -6.0779 2.3052 -1.4267 0
M  V30 34 Pb -6.2792 0.3282 -1.1671 0
M  V30 35 Pb -6.8296 1.3071 -2.0223 0
M  V30 36 Pd 5.1582 1.8818 3.1702 0
M  V30 37 Pb 5.1692 1.5423 2.2255 0
M  V30 38 Pb 5.1218 2.1783 4.1266 0
M  V30 39 Pb 5.5285 0.9991 3.4491 0
M  V30 40 Pb 4.7929 2.7776 2.9129 0
M  V30 41 Pd 1.6113 1.2637 7.2903 0
M  V30 42 Pb 2.0861 0.4376 7.6311 0
M  V30 43 Pb 1.1185 2.0676 6.9584 0
M  V30 44 Pb 2.4877 1.7312 7.1544 0
M  V30 45 Pb 0.7497 0.7778 7.4154 0
M  V30 46 Ag 2.4265 -5.0140 4.5426 0
M  V30 47 Fe 2.3916 -4.5539 2.2127 0
M  V30 48 Ag 2.3439 -4.1586 -0.1287 0
M  V30 49 Ag -1.3005 3.1817 2.3265 0
M  V30 50 Fe -3.2306 2.3508 1.2113 0
M  V30 51 Ag -5.1866 1.4802 0.1740 0
M  V30 52 Ag 3.5569 -2.1601 -1.3826 0
M  V30 53 Fe 4.3836 -0.4651 0.0700 0
M  V30 54 Ag 5.1925 1.2202 1.5439 0
M  V30 55 Ag 1.0279 -4.1486 6.5498 0
M  V30 56 Fe 0.1246 -2.0466 7.1262 0
M  V30 57 Ag 0.1953 0.2860 7.4780 0
M  V30 58 Ag -5.9322 -2.5030 -5.0757 0
M  V30 59 Fe -6.9237 -0.5383 -4.2438 0
M  V30 60 Ag -7.1877 1.1780 -2.6563 0
M  V30 61 Ag 4.2560 -3.7449 5.5191 0
M  V30 62 Fe 5.1694 -1.7725 4.5768 0
M  V30 63 Ag 5.7745 0.3247 3.6551 0
M  V30 64 Ag 0.4730 4.3778 0.7778 0
M  V30 65 Fe 0.1833 4.4020 -1.5768 0
M  V30 66 Ag -0.0690 4.4570 -3.9352 0
M  V30 67 Ag -2.3845 4.4177 -4.5322 0
M  V30 68 Fe -4.1964 3.8730 -3.1031 0
M  V30 69 Ag -5.8765 2.9711 -1.6946 0
M  V30 70 Ag -3.4971 -4.3237 -3.4099 0
M  V30 71 Fe -1.2498 -4.4620 -2.6674 0
M  V30 72 Ag 1.0134 -4.4648 -1.9615 0
M  V30 73 Ba 1.1511 -2.2252 -5.8991 0
M  V30 74 Ga 1.7772 -2.6819 -4.6388 0
M  V30 75 Ba 2.4989 -3.1849 -3.4493 0
M  V30 76 Ba 0.9059 0.0953 -6.3820 0
M  V30 77 Ga 0.7421 1.5272 -6.0906 0
M  V30 78 Ba 0.5081 2.9463 -5.7852 0
M  V30 79 Ba -5.5193 -2.8480 -2.7468 0
M  V30 80 Ga -5.8883 -1.6072 -1.9928 0
M  V30 81 Ba -6.3052 -0.4387 -1.1528 0
M  V30 82 Ba 2.9408 -3.0573 7.3794 0
M  V30 83 Ga 2.6591 -1.6146 7.6147 0
M  V30 84 Ba 2.4202 -0.1792 7.9283 0
M  V30 85 Ba -1.4158 -0.1201 -7.0157 0
M  V30 86 Ga -1.6457 1.3113 -6.7223 0
M  V30 87 Ba -1.8310 2.7411 -6.3917 0
M  V30 88 Ba -3.7658 -3.7993 -5.6598 0
M  V30 89 Ga -2.5233 -3.1994 -6.1914 0
M  V30 90 Ba -1.2799 -2.6118 -6.7343 0
M  V30 91 Ba 1.8489 4.6905 2.5535 0
M  V30 92 Ga 3.1881 4.0808 2.6695 0
M  V30 93 Ba 4.5262 3.4683 2.7848 0
M  V30 94 Ba 5.0821 2.4026 4.8433 0
M  V30 95 Ga 4.1109 2.2350 5.9450 0
M  V30 96 Ba 3.1493 2.0764 7.0564 0
M  V30 97 Ba 0.0262 4.0258 4.2054 0
M  V30 98 Ga 0.4030 3.3142 5.4422 0
M  V30 99 Ba 0.7308 2.6659 6.7268 0
M  V30 END ATOM
M  V30 BEGIN BOND
M  V30 1 1 1 2
M  V30 2 1 1 3
M  V30 3 1 1 4
M  V30 4 1 1 5
M  V30 5 1 6 7
M  V30 6 1 6 8
M  V30 7 1 6 9
M  V30 8 1 6 10
M  V30 9 1 11 12
M  V30 10 1 11 13
M  V30 11 1 11 14
M  V30 12 1 11 15
M  V30 13 1 16 17
M  V30 14 1 16 18
M  V30 15 1 16 19
M  V30 16 1 16 20
M  V30 17 1 21 22
M  V30 18 1 21 23
M  V30 19 1 21 24
M  V30 20 1 21 25
M  V30 21 1 26 27
M  V30 22 1 26 28
M  V30 23 1 26 29
M  V30 24 1 26 30
M  V30 25 1 31 32
M  V30 26 1 31 33
M  V30 27 1 31 34
M  V30 28 1 31 35
M  V30 29 1 36 37
M  V30 30 1 36 38
M  V30 31 1 36 39
M  V30 32 1 36 40
M  V30 33 1 41 42
M  V30 34 1 41 43
M  V30 35 1 41 44
M  V30 36 1 41 45
M  V30 37 1 46 47
M  V30 38 1 47 48
M  V30 39 1 49 50
M  V30 40 1 50 51
M  V30 41 1 52 53
M  V30 42 1 53 54
M  V30 43 1 55 56
M  V30 44 1 56 57
M  V30 45 1 58 59
M  V30 46 1 59 60
M  V30 47 1 61 62
M  V30 48 1 62 63
M  V30 49 1 64 65
M  V30 50 1 65 66
M  V30 51 1 67 68
M  V30 52 1 68 69
M  V30 53 1 70 71
M  V30 54 1 71 72
M  V30 55 1 73 74
M  V30 56 1 74 75
M  V30 57 1 76 77
M  V30 58 1 77 78
M  V30 59 1 79 80
M  V30 60 1 80 81
M  V30 61 1 82 83
M  V30 62 1 83 84
M  V30 63 1 85 86
M  V30 64 1 86 87
M  V30 65 1 88 89
M  V30 66 1 89 90
M  V30 67 1 91 92
M  V30 68 1 92 93
M  V30 69 1 94 95
M  V30 70 1 95 96
M  V30 71 1 97 98
M  V30 72 1 98 99
M  V30 73 1 2 49
M  V30 74 1 3 97
M  V30 75 1 4 64
M  V30 76 1 5 91
M  V30 77 1 7 46
M  V30 78 1 8 82
M  V30 79 1 9 61
M  V30 80 1 10 55
M  V30 81 1 12 58
M  V30 82 1 13 70
M  V30 83 1 14 88
M  V30 84 1 15 79
M  V30 85 1 17 90
M  V30 86 1 18 76
M  V30 87 1 19 73
M  V30 88 1 20 85
M  V30 89 1 22 48
M  V30 90 1 23 72
M  V30 91 1 24 75
M  V30 92 1 25 52
M  V30 93 1 27 78
M  V30 94 1 28 67
M  V30 95 1 29 66
M  V30 96 1 30 87
M  V30 97 1 32 51
M  V30 98 1 33 69
M  V30 99 1 34 81
M  V30 100 1 35 60
M  V30 101 1 37 54
M  V30 102 1 38 94
M  V30 103 1 39 63
M  V30 104 1 40 93
M  V30 105 1 42 84
M  V30 106 1 43 99
M  V30 107 1 44 96
M  V30 108 1 45 57
M  V30 END BOND
M  V30 END CTAB
M  END

$$$$
