
     RDKit          3D

  0  0  0  0  0  0  0  0  0  0999 V3000
M  V30 BEGIN CTAB
M  V30 COUNTS 99 108 0 0 0
M  V30 BEGIN ATOM
M  V30 1 Pd 1.2327 -0.8755 -3.5741 0
M  V30 2 Pb 0.4868 -1.5139 -3.7642 0
M  V30 3 Pb 1.3896 -1.3769 -2.7226 0
M  V30 4 Pb 1.0163 -0.3533 -4.3993 0
M  V30 5 Pb 1.9304 -0.1954 -3.3390 0
M  V30 6 Pd 5.5289 -5.1774 3.7266 0
M  V30 7 Pb 5.0133 -4.5937 4.3558 0
M  V30 8 Pb 6.0170 -5.7369 3.0556 0
M  V30 9 Pb 6.3223 -4.5769 3.8226 0
M  V30 10 Pb 4.7091 -5.7162 3.5326 0
M  V30 11 Pd -6.0170 0.6821 2.1416 0
M  V30 12 Pb -6.8779 0.9195 1.7091 0
M  V30 13 Pb -5.2032 0.4202 2.6651 0
M  V30 14 Pb -5.9841 1.6172 2.4928 0
M  V30 15 Pb -6.0463 -0.2314 1.6882 0
M  V30 16 Pd -3.5287 5.5713 0.7689 0
M  V30 17 Pb -4.2596 5.1341 1.2996 0
M  V30 18 Pb -2.8021 6.0700 0.3152 0
M  V30 19 Pb -2.9686 5.5576 1.5952 0
M  V30 20 Pb -4.0461 5.5426 -0.1147 0
M  V30 21 Pd 1.2819 1.3058 5.0127 0
M  V30 22 Pb 1.7314 0.4439 5.2586 0
M  V30 23 Pb 0.3924 0.8473 5.0133 0
M  V30 24 Pb 0.8246 2.1749 4.8256 0
M  V30 25 Pb 2.1706 1.7580 4.9312 0
M  V30 26 Pd -3.3349 4.4167 -5.0866 0
M  V30 27 Pb -2.6558 5.1113 -4.8880 0
M  V30 28 Pb -3.9926 3.7054 -5.3335 0
M  V30 29 Pb -2.6890 3.9818 -5.7109 0
M  V30 30 Pb -3.9157 4.7647 -4.3197 0
M  V30 31 Pd -6.3548 -1.9523 -3.0225 0
M  V30 32 Pb -5.4519 -2.3428 -3.2072 0
M  V30 33 Pb -6.3537 -1.5253 -3.9218 0
M  V30 34 Pb -6.3018 -2.1913 -2.0355 0
M  V30 35 Pb -7.2528 -1.5549 -2.8776 0
M  V30 36 Pd 7.1981 1.0833 0.6176 0
M  V30 37 Pb 6.9038 1.6720 1.3695 0
M  V30 38 Pb 7.3813 0.4272 -0.1108 0
M  V30 39 Pb 7.7033 0.5190 1.2697 0
M  V30 40 Pb 6.6013 1.5513 -0.0318 0
M  V30 41 Pd 4.0618 -5.1755 -0.7016 0
M  V30 42 Pb 4.8238 -5.7944 -0.5216 0
M  V30 43 Pb 3.3319 -4.4921 -0.7551 0
M  V30 44 Pb 4.6687 -4.6088 -1.2552 0
M  V30 45 Pb 3.5150 -5.7042 -0.0522 0
M  V30 46 Ag 4.6203 -4.1433 4.8108 0
M  V30 47 Fe 3.3416 -2.1636 5.1231 0
M  V30 48 Ag 2.0571 -0.1961 5.4840 0
M  V30 49 Ag -0.0936 -1.9810 -3.8516 0
M  V30 50 Fe -2.4335 -2.3285 -3.6314 0
M  V30 51 Ag -4.7787 -2.6212 -3.3903 0
M  V30 52 Ag 2.8329 2.0890 4.8092 0
M  V30 53 Fe 4.7728 2.1521 3.4406 0
M  V30 54 Ag 6.6239 2.0440 1.9568 0
M  V30 55 Ag -2.5207 5.5154 2.1932 0
M  V30 56 Fe -1.0218 4.1885 3.4692 0
M  V30 57 Ag 0.4713 2.8269 4.7150 0
M  V30 58 Ag -2.3032 6.4122 -0.1076 0
M  V30 59 Fe -1.8443 6.3496 -2.4120 0
M  V30 60 Ag -2.1790 5.6033 -4.6151 0
M  V30 61 Ag -7.5020 1.0036 1.3230 0
M  V30 62 Fe -8.2017 0.1108 -0.7353 0
M  V30 63 Ag -7.8539 -1.1826 -2.6659 0
M  V30 64 Ag 6.8803 -4.0763 3.8263 0
M  V30 65 Fe 7.5761 -2.0163 2.8726 0
M  V30 66 Ag 8.0011 0.0384 1.7615 0
M  V30 67 Ag 0.8136 0.0716 -4.9832 0
M  V30 68 Fe -0.6241 1.8256 -5.6843 0
M  V30 69 Ag -2.1732 3.5810 -6.0753 0
M  V30 70 Ag 2.4212 0.3439 -3.1537 0
M  V30 71 Fe 4.2656 1.1277 -1.8771 0
M  V30 72 Ag 6.1180 1.7970 -0.5485 0
M  V30 73 Ag 7.4012 -0.0951 -0.6448 0
M  V30 74 Fe 6.3764 -2.1425 -1.2630 0
M  V30 75 Ag 5.1705 -4.1599 -1.5805 0
M  V30 76 Ag -4.4288 3.1403 -5.5640 0
M  V30 77 Fe -5.4225 1.0259 -5.1478 0
M  V30 78 Ag -6.3274 -1.0741 -4.5151 0
M  V30 79 Ag -4.6344 0.1993 3.1056 0
M  V30 80 Fe -2.4485 0.3764 4.0223 0
M  V30 81 Ag -0.2730 0.5021 4.9718 0
M  V30 82 Ba -6.0729 -0.9253 1.3554 0
M  V30 83 Ga -6.1657 -1.5774 0.0091 0
M  V30 84 Ba -6.2559 -2.3331 -1.2823 0
M  V30 85 Ba 4.1025 -6.0873 3.2941 0
M  V30 86 Ga 3.5634 -6.1384 1.9220 0
M  V30 87 Ba 3.1709 -6.0752 0.5015 0
M  V30 88 Ba 6.3273 -6.1456 2.5078 0
M  V30 89 Ga 5.9330 -6.2419 1.0909 0
M  V30 90 Ba 5.3986 -6.2088 -0.2821 0
M  V30 91 Ba -4.4427 5.5452 -0.7794 0
M  V30 92 Ga -4.3224 5.2538 -2.2495 0
M  V30 93 Ba -4.3560 5.0076 -3.7325 0
M  V30 94 Ba -6.0046 2.3388 2.6954 0
M  V30 95 Ga -5.3659 3.5827 2.2168 0
M  V30 96 Ba -4.7680 4.8637 1.7863 0
M  V30 97 Ba 1.4279 -1.7503 -2.0727 0
M  V30 98 Ga 2.1555 -2.8718 -1.4464 0
M  V30 99 Ba 2.7960 -3.9687 -0.6942 0
M  V30 END ATOM
M  V30 BEGIN BOND
M  V30 1 1 1 2
M  V30 2 1 1 3
M  V30 3 1 1 4
M  V30 4 1 1 5
M  V30 5 1 6 7
M  V30 6 1 6 8
M  V30 7 1 6 9
M  V30 8 1 6 10
M  V30 9 1 11 12
M  V30 10 1 11 13
M  V30 11 1 11 14
M  V30 12 1 11 15
M  V30 13 1 16 17
M  V30 14 1 16 18
M  V30 15 1 16 19
M  V30 16 1 16 20
M  V30 17 1 21 22
M  V30 18 1 21 23
M  V30 19 1 21 24
M  V30 20 1 21 25
M  V30 21 1 26 27
M  V30 22 1 26 28
M  V30 23 1 26 29
M  V30 24 1 26 30
M  V30 25 1 31 32
M  V30 26 1 31 33
M  V30 27 1 31 34
M  V30 28 1 31 35
M  V30 29 1 36 37
M  V30 30 1 36 38
M  V30 31 1 36 39
M  V30 32 1 36 40
M  V30 33 1 41 42
M  V30 34 1 41 43
M  V30 35 1 41 44
M  V30 36 1 41 45
M  V30 37 1 46 47
M  V30 38 1 47 48
M  V30 39 1 49 50
M  V30 40 1 50 51
M  V30 41 1 52 53
M  V30 42 1 53 54
M  V30 43 1 55 56
M  V30 44 1 56 57
M  V30 45 1 58 59
M  V30 46 1 59 60
M  V30 47 1 61 62
M  V30 48 1 62 63
M  V30 49 1 64 65
M  V30 50 1 65 66
M  V30 51 1 67 68
M  V30 52 1 68 69
M  V30 53 1 70 71
M  V30 54 1 71 72
M  V30 55 1 73 74
M  V30 56 1 74 75
M  V30 57 1 76 77
M  V30 58 1 77 78
M  V30 59 1 79 80
M  V30 60 1 80 81
M  V30 61 1 82 83
M  V30 62 1 83 84
M  V30 63 1 85 86
M  V30 64 1 86 87
M  V30 65 1 88 89
M  V30 66 1 89 90
M  V30 67 1 91 92
M  V30 68 1 92 93
M  V30 69 1 94 95
M  V30 70 1 95 96
M  V30 71 1 97 98
M  V30 72 1 98 99
M  V30 73 1 2 49
M  V30 74 1 3 97
M  V30 75 1 4 67
M  V30 76 1 5 70
M  V30 77 1 7 46
M  V30 78 1 8 88
M  V30 79 1 9 64
M  V30 80 1 10 85
M  V30 81 1 12 61
M  V30 82 1 13 79
M  V30 83 1 14 94
M  V30 84 1 15 82
M  V30 85 1 17 96
M  V30 86 1 18 58
M  V30 87 1 19 55
M  V30 88 1 20 91
M  V30 89 1 22 48
M  V30 90 1 23 81
M  V30 91 1 24 57
M  V30 92 1 25 52
M  V30 93 1 27 60
M  V30 94 1 28 76
M  V30 95 1 29 69
M  V30 96 1 30 93
M  V30 97 1 32 51
M  V30 98 1 33 78
M  V30 99 1 34 84
M  V30 100 1 35 63
M  V30 101 1 37 54
M  V30 102 1 38 73
M  V30 103 1 39 66
M  V30 104 1 40 72
M  V30 105 1 42 90
M  V30 106 1 43 99
M  V30 107 1 44 75
M  V30 108 1 45 87
M  V30 END BOND
M  V30 END CTAB
M  END

$$$$
