
     RDKit          3D

  0  0  0  0  0  0  0  0  0  0999 V3000
M  V30 BEGIN CTAB
M  V30 COUNTS 99 108 0 0 0
M  V30 BEGIN ATOM
M  V30 1 Pd -4.3001 1.6193 3.4424 0
M  V30 2 Pb -4.6959 1.1494 4.2229 0
M  V30 3 Pb -3.8303 2.1040 2.7049 0
M  V30 4 Pb -3.9675 0.7455 3.0798 0
M  V30 5 Pb -4.6993 2.4948 3.7784 0
M  V30 6 Pd -9.1322 4.5171 5.3133 0
M  V30 7 Pb -8.9079 3.8507 6.0149 0
M  V30 8 Pb -9.4010 5.1332 4.5681 0
M  V30 9 Pb -8.1423 4.6024 5.0945 0
M  V30 10 Pb -10.0999 4.3367 5.4699 0
M  V30 11 Pd 12.3545 -1.9033 -4.8405 0
M  V30 12 Pb 11.5223 -1.4634 -5.1726 0
M  V30 13 Pb 12.0035 -2.8019 -5.1142 0
M  V30 14 Pb 13.1418 -2.3647 -4.4470 0
M  V30 15 Pb 12.4965 -1.1632 -4.1790 0
M  V30 16 Pd 10.2324 -4.2083 0.3176 0
M  V30 17 Pb 10.5156 -3.2867 0.5914 0
M  V30 18 Pb 10.0215 -4.9292 -0.3459 0
M  V30 19 Pb 9.2675 -4.0476 0.5448 0
M  V30 20 Pb 11.1926 -4.3948 0.1384 0
M  V30 21 Pd -5.8767 -0.7388 -0.7480 0
M  V30 22 Pb -5.1903 -1.1239 -0.1307 0
M  V30 23 Pb -5.1766 -0.5131 -1.4260 0
M  V30 24 Pb -6.5561 -0.2408 -1.2824 0
M  V30 25 Pb -6.6237 -0.9605 -0.1175 0
M  V30 26 Pd -11.5534 2.8578 1.6287 0
M  V30 27 Pb -11.9809 2.9146 2.5298 0
M  V30 28 Pb -11.4728 3.8537 1.6387 0
M  V30 29 Pb -11.4210 1.8701 1.7025 0
M  V30 30 Pb -11.1206 2.7918 0.7308 0
M  V30 31 Pd 6.1257 -1.7299 -1.8624 0
M  V30 32 Pb 6.2730 -0.8688 -1.3843 0
M  V30 33 Pb 6.3076 -1.2861 -2.7359 0
M  V30 34 Pb 6.0973 -2.2172 -0.9930 0
M  V30 35 Pb 5.7811 -2.5353 -2.3339 0
M  V30 36 Pd 2.2088 1.5252 -0.2163 0
M  V30 37 Pb 3.2112 1.4449 -0.2475 0
M  V30 38 Pb 1.3917 2.0972 -0.1508 0
M  V30 39 Pb 2.1060 1.4933 -1.2098 0
M  V30 40 Pb 2.5292 0.5800 -0.2824 0
M  V30 41 Pd -0.5573 -1.8814 -2.6751 0
M  V30 42 Pb -0.0421 -1.1367 -3.0993 0
M  V30 43 Pb 0.2640 -2.0387 -2.1154 0
M  V30 44 Pb 0.1221 -2.5541 -2.9638 0
M  V30 45 Pb -1.4019 -1.3720 -2.8413 0
M  V30 46 Ag 10.8601 -1.1641 -5.3482 0
M  V30 47 Fe 8.6428 -0.9617 -4.5346 0
M  V30 48 Ag 6.5779 -1.0046 -3.3715 0
M  V30 49 Ag -5.0452 0.9218 4.8342 0
M  V30 50 Fe -6.8846 1.7886 6.0211 0
M  V30 51 Ag -8.6590 3.2837 6.4189 0
M  V30 52 Ag 11.6756 -3.4803 -5.0484 0
M  V30 53 Fe 10.7420 -4.6485 -3.1894 0
M  V30 54 Ag 9.9931 -5.2813 -1.0144 0
M  V30 55 Ag 12.4828 -0.7971 -3.5173 0
M  V30 56 Fe 11.7142 -1.4170 -1.3453 0
M  V30 57 Ag 10.8025 -2.5907 0.5210 0
M  V30 58 Ag 13.6022 -2.7499 -4.0147 0
M  V30 59 Fe 13.1632 -3.7967 -1.9489 0
M  V30 60 Ag 11.8961 -4.4810 -0.0816 0
M  V30 61 Ag -3.4255 2.4587 2.1827 0
M  V30 62 Fe -1.3661 2.5358 1.0029 0
M  V30 63 Ag 0.7431 2.4672 -0.0859 0
M  V30 64 Ag 5.3566 -3.0520 -2.6594 0
M  V30 65 Fe 3.0284 -3.2715 -3.0333 0
M  V30 66 Ag 0.6760 -3.0193 -3.1549 0
M  V30 67 Ag -7.0921 0.1906 -1.5743 0
M  V30 68 Fe -8.9686 1.4800 -0.9077 0
M  V30 69 Ag -10.7726 2.6621 0.0807 0
M  V30 70 Ag -7.2469 -1.0816 0.2867 0
M  V30 71 Fe -9.2575 -0.0943 1.0825 0
M  V30 72 Ag -11.1605 1.1678 1.7422 0
M  V30 73 Ba 8.5487 -3.9492 0.7513 0
M  V30 74 Ga 7.3468 -3.2809 0.2133 0
M  V30 75 Ba 6.1656 -2.6013 -0.3553 0
M  V30 76 Ba -9.6715 5.5463 3.9985 0
M  V30 77 Ga -10.4946 5.1427 2.8385 0
M  V30 78 Ba -11.3053 4.5777 1.7390 0
M  V30 79 Ba 2.6505 -0.1576 -0.3570 0
M  V30 80 Ga 1.8085 -1.1727 -1.0300 0
M  V30 81 Ba 0.9068 -2.1199 -1.7249 0
M  V30 82 Ba -10.8194 4.1413 5.5052 0
M  V30 83 Ga -11.6223 3.5674 4.4149 0
M  V30 84 Ba -12.2658 3.0100 3.2156 0
M  V30 85 Ba -4.6982 -0.3266 -1.9732 0
M  V30 86 Ga -3.3430 -0.6734 -2.4423 0
M  V30 87 Ba -2.0023 -0.9485 -2.9933 0
M  V30 88 Ba 1.9923 1.4264 -1.9474 0
M  V30 89 Ga 1.1894 0.4519 -2.7085 0
M  V30 90 Ba 0.3605 -0.5680 -3.3765 0
M  V30 91 Ba 6.2717 -0.2102 -1.0323 0
M  V30 92 Ga 5.1232 0.6259 -0.6251 0
M  V30 93 Ba 3.9672 1.4543 -0.2232 0
M  V30 94 Ba -4.9734 3.1720 4.0173 0
M  V30 95 Ga -6.2256 3.8549 4.4721 0
M  V30 96 Ba -7.3930 4.6662 4.9413 0
M  V30 97 Ba -3.7528 0.0863 2.7863 0
M  V30 98 Ga -4.1842 -0.6614 1.5870 0
M  V30 99 Ba -4.6741 -1.3402 0.3694 0
M  V30 END ATOM
M  V30 BEGIN BOND
M  V30 1 1 1 2
M  V30 2 1 1 3
M  V30 3 1 1 4
M  V30 4 1 1 5
M  V30 5 1 6 7
M  V30 6 1 6 8
M  V30 7 1 6 9
M  V30 8 1 6 10
M  V30 9 1 11 12
M  V30 10 1 11 13
M  V30 11 1 11 14
M  V30 12 1 11 15
M  V30 13 1 16 17
M  V30 14 1 16 18
M  V30 15 1 16 19
M  V30 16 1 16 20
M  V30 17 1 21 22
M  V30 18 1 21 23
M  V30 19 1 21 24
M  V30 20 1 21 25
M  V30 21 1 26 27
M  V30 22 1 26 28
M  V30 23 1 26 29
M  V30 24 1 26 30
M  V30 25 1 31 32
M  V30 26 1 31 33
M  V30 27 1 31 34
M  V30 28 1 31 35
M  V30 29 1 36 37
M  V30 30 1 36 38
M  V30 31 1 36 39
M  V30 32 1 36 40
M  V30 33 1 41 42
M  V30 34 1 41 43
M  V30 35 1 41 44
M  V30 36 1 41 45
M  V30 37 1 46 47
M  V30 38 1 47 48
M  V30 39 1 49 50
M  V30 40 1 50 51
M  V30 41 1 52 53
M  V30 42 1 53 54
M  V30 43 1 55 56
M  V30 44 1 56 57
M  V30 45 1 58 59
M  V30 46 1 59 60
M  V30 47 1 61 62
M  V30 48 1 62 63
M  V30 49 1 64 65
M  V30 50 1 65 66
M  V30 51 1 67 68
M  V30 52 1 68 69
M  V30 53 1 70 71
M  V30 54 1 71 72
M  V30 55 1 73 74
M  V30 56 1 74 75
M  V30 57 1 76 77
M  V30 58 1 77 78
M  V30 59 1 79 80
M  V30 60 1 80 81
M  V30 61 1 82 83
M  V30 62 1 83 84
M  V30 63 1 85 86
M  V30 64 1 86 87
M  V30 65 1 88 89
M  V30 66 1 89 90
M  V30 67 1 91 92
M  V30 68 1 92 93
M  V30 69 1 94 95
M  V30 70 1 95 96
M  V30 71 1 97 98
M  V30 72 1 98 99
M  V30 73 1 2 49
M  V30 74 1 3 61
M  V30 75 1 4 97
M  V30 76 1 5 94
M  V30 77 1 7 51
M  V30 78 1 8 76
M  V30 79 1 9 96
M  V30 80 1 10 82
M  V30 81 1 12 46
M  V30 82 1 13 52
M  V30 83 1 14 58
M  V30 84 1 15 55
M  V30 85 1 17 57
M  V30 86 1 18 54
M  V30 87 1 19 73
M  V30 88 1 20 60
M  V30 89 1 22 99
M  V30 90 1 23 85
M  V30 91 1 24 67
M  V30 92 1 25 70
M  V30 93 1 27 84
M  V30 94 1 28 78
M  V30 95 1 29 72
M  V30 96 1 30 69
M  V30 97 1 32 91
M  V30 98 1 33 48
M  V30 99 1 34 75
M  V30 100 1 35 64
M  V30 101 1 37 93
M  V30 102 1 38 63
M  V30 103 1 39 88
M  V30 104 1 40 79
M  V30 105 1 42 90
M  V30 106 1 43 81
M  V30 107 1 44 66
M  V30 108 1 45 87
M  V30 END BOND
M  V30 END CTAB
M  END

$$$$
