
     RDKit          3D

  0  0  0  0  0  0  0  0  0  0999 V3000
M  V30 BEGIN CTAB
M  V30 COUNTS 99 108 0 0 0
M  V30 BEGIN ATOM
M  V30 1 Pd 2.7168 1.6033 4.6538 0
M  V30 2 Pb 3.4923 1.7897 4.0480 0
M  V30 3 Pb 3.0861 0.6967 4.8493 0
M  V30 4 Pb 2.3905 2.5383 4.5208 0
M  V30 5 Pb 1.9146 1.4047 5.2212 0
M  V30 6 Pd -0.8231 -7.7743 0.5462 0
M  V30 7 Pb -0.9271 -7.2779 -0.3134 0
M  V30 8 Pb 0.0700 -8.1227 0.2746 0
M  V30 9 Pb -1.6566 -7.3507 0.8839 0
M  V30 10 Pb -0.6644 -8.1281 1.4787 0
M  V30 11 Pd 1.5846 0.9624 -6.9469 0
M  V30 12 Pb 2.2611 0.2483 -6.7942 0
M  V30 13 Pb 0.8633 0.2928 -7.1181 0
M  V30 14 Pb 0.8897 1.6736 -7.0416 0
M  V30 15 Pb 2.2832 1.6496 -6.6874 0
M  V30 16 Pd -4.2579 4.3416 -3.3232 0
M  V30 17 Pb -3.7308 4.2250 -4.1652 0
M  V30 18 Pb -3.7263 5.1808 -3.1183 0
M  V30 19 Pb -4.7701 3.4997 -3.4937 0
M  V30 20 Pb -4.7756 4.4814 -2.4855 0
M  V30 21 Pd -3.7054 -1.2989 -2.7680 0
M  V30 22 Pb -3.1366 -2.1071 -2.6048 0
M  V30 23 Pb -3.5534 -1.4759 -3.7388 0
M  V30 24 Pb -4.3300 -0.5499 -3.0009 0
M  V30 25 Pb -3.7492 -1.0464 -1.7962 0
M  V30 26 Pd -0.6959 7.0817 0.4689 0
M  V30 27 Pb -1.1778 7.1660 -0.4182 0
M  V30 28 Pb 0.1895 7.1198 0.0062 0
M  V30 29 Pb -0.2311 6.9176 1.3356 0
M  V30 30 Pb -1.5767 7.0061 0.9246 0
M  V30 31 Pd 5.0077 2.9516 -2.5762 0
M  V30 32 Pb 5.2769 2.8280 -1.6192 0
M  V30 33 Pb 4.6602 3.8637 -2.3582 0
M  V30 34 Pb 4.7099 3.0628 -3.5401 0
M  V30 35 Pb 5.3332 2.0395 -2.8071 0
M  V30 36 Pd -1.7925 -1.8729 4.7769 0
M  V30 37 Pb -2.1892 -1.2840 4.0695 0
M  V30 38 Pb -1.4220 -2.5077 5.4607 0
M  V30 39 Pb -2.2769 -2.6265 4.3400 0
M  V30 40 Pb -1.3447 -1.1031 5.2419 0
M  V30 41 Pd 1.9426 -6.0331 5.1056 0
M  V30 42 Pb 2.6308 -6.4592 4.5233 0
M  V30 43 Pb 2.5609 -5.2754 5.2979 0
M  V30 44 Pb 1.2482 -5.5919 5.6807 0
M  V30 45 Pb 1.3096 -6.7765 4.8401 0
M  V30 46 Ag -0.9906 -6.8233 -0.9049 0
M  V30 47 Fe -1.8824 -4.7835 -1.7351 0
M  V30 48 Ag -2.7445 -2.7493 -2.6094 0
M  V30 49 Ag 4.0587 1.9239 3.5724 0
M  V30 50 Fe 4.7832 2.3332 1.3459 0
M  V30 51 Ag 5.4614 2.7396 -0.8958 0
M  V30 52 Ag -3.7450 -0.7809 -1.0891 0
M  V30 53 Fe -3.1312 -0.8537 1.2092 0
M  V30 54 Ag -2.5304 -0.9114 3.5112 0
M  V30 55 Ag 0.7936 -8.2850 0.2646 0
M  V30 56 Fe 2.3697 -7.7467 1.9339 0
M  V30 57 Ag 3.0232 -6.8094 3.9975 0
M  V30 58 Ag 2.8162 -0.1795 -6.5505 0
M  V30 59 Fe 4.3962 0.1876 -4.8377 0
M  V30 60 Ag 5.4633 1.3684 -3.0963 0
M  V30 61 Ag -5.0385 4.6637 -1.8171 0
M  V30 62 Fe -4.0269 5.7784 -0.0041 0
M  V30 63 Ag -2.2728 6.8642 1.1347 0
M  V30 64 Ag 0.3343 2.1747 -7.0792 0
M  V30 65 Fe -1.4984 3.1911 -5.9629 0
M  V30 66 Ag -3.3175 4.1662 -4.7886 0
M  V30 67 Ag -2.2096 -6.9709 1.2050 0
M  V30 68 Fe -2.5583 -5.0879 2.5991 0
M  V30 69 Ag -2.6472 -3.1737 3.9922 0
M  V30 70 Ag 2.1699 3.2509 4.4505 0
M  V30 71 Fe 1.1470 5.0108 3.2308 0
M  V30 72 Ag 0.1143 6.7382 1.9735 0
M  V30 73 Ag 3.3804 0.0324 5.0284 0
M  V30 74 Fe 3.2156 -2.3257 5.2269 0
M  V30 75 Ag 3.0004 -4.6813 5.4047 0
M  V30 76 Ag 0.8574 7.1200 -0.3343 0
M  V30 77 Fe 2.6378 5.8596 -1.2732 0
M  V30 78 Ag 4.3849 4.5425 -2.1968 0
M  V30 79 Ag 0.2695 -0.1600 -7.1729 0
M  V30 80 Fe -1.5927 -0.9657 -5.9423 0
M  V30 81 Ag -3.3286 -1.5792 -4.4451 0
M  V30 82 Ba -5.1697 2.8729 -3.5945 0
M  V30 83 Ga -4.9633 1.4242 -3.3935 0
M  V30 84 Ba -4.8359 -0.0369 -3.2191 0
M  V30 85 Ba -3.3386 5.8271 -2.9940 0
M  V30 86 Ga -2.4387 6.4779 -1.9984 0
M  V30 87 Ba -1.5351 7.2392 -1.0881 0
M  V30 88 Ba 2.8037 2.1762 -6.5014 0
M  V30 89 Ga 3.6321 2.6219 -5.3429 0
M  V30 90 Ba 4.5137 3.1704 -4.2712 0
M  V30 91 Ba -0.5537 -8.3471 2.1985 0
M  V30 92 Ga 0.1645 -7.8261 3.3955 0
M  V30 93 Ba 0.8618 -7.3541 4.6247 0
M  V30 94 Ba 1.3044 1.2692 5.6402 0
M  V30 95 Ga 0.1473 0.3477 5.6027 0
M  V30 96 Ba -1.0379 -0.5373 5.6358 0
M  V30 97 Ba -1.1727 -3.0012 5.9733 0
M  V30 98 Ga -0.2040 -4.1193 6.0248 0
M  V30 99 Ba 0.7510 -5.2453 6.1291 0
M  V30 END ATOM
M  V30 BEGIN BOND
M  V30 1 1 1 2
M  V30 2 1 1 3
M  V30 3 1 1 4
M  V30 4 1 1 5
M  V30 5 1 6 7
M  V30 6 1 6 8
M  V30 7 1 6 9
M  V30 8 1 6 10
M  V30 9 1 11 12
M  V30 10 1 11 13
M  V30 11 1 11 14
M  V30 12 1 11 15
M  V30 13 1 16 17
M  V30 14 1 16 18
M  V30 15 1 16 19
M  V30 16 1 16 20
M  V30 17 1 21 22
M  V30 18 1 21 23
M  V30 19 1 21 24
M  V30 20 1 21 25
M  V30 21 1 26 27
M  V30 22 1 26 28
M  V30 23 1 26 29
M  V30 24 1 26 30
M  V30 25 1 31 32
M  V30 26 1 31 33
M  V30 27 1 31 34
M  V30 28 1 31 35
M  V30 29 1 36 37
M  V30 30 1 36 38
M  V30 31 1 36 39
M  V30 32 1 36 40
M  V30 33 1 41 42
M  V30 34 1 41 43
M  V30 35 1 41 44
M  V30 36 1 41 45
M  V30 37 1 46 47
M  V30 38 1 47 48
M  V30 39 1 49 50
M  V30 40 1 50 51
M  V30 41 1 52 53
M  V30 42 1 53 54
M  V30 43 1 55 56
M  V30 44 1 56 57
M  V30 45 1 58 59
M  V30 46 1 59 60
M  V30 47 1 61 62
M  V30 48 1 62 63
M  V30 49 1 64 65
M  V30 50 1 65 66
M  V30 51 1 67 68
M  V30 52 1 68 69
M  V30 53 1 70 71
M  V30 54 1 71 72
M  V30 55 1 73 74
M  V30 56 1 74 75
M  V30 57 1 76 77
M  V30 58 1 77 78
M  V30 59 1 79 80
M  V30 60 1 80 81
M  V30 61 1 82 83
M  V30 62 1 83 84
M  V30 63 1 85 86
M  V30 64 1 86 87
M  V30 65 1 88 89
M  V30 66 1 89 90
M  V30 67 1 91 92
M  V30 68 1 92 93
M  V30 69 1 94 95
M  V30 70 1 95 96
M  V30 71 1 97 98
M  V30 72 1 98 99
M  V30 73 1 2 49
M  V30 74 1 3 73
M  V30 75 1 4 70
M  V30 76 1 5 94
M  V30 77 1 7 46
M  V30 78 1 8 55
M  V30 79 1 9 67
M  V30 80 1 10 91
M  V30 81 1 12 58
M  V30 82 1 13 79
M  V30 83 1 14 64
M  V30 84 1 15 88
M  V30 85 1 17 66
M  V30 86 1 18 85
M  V30 87 1 19 82
M  V30 88 1 20 61
M  V30 89 1 22 48
M  V30 90 1 23 81
M  V30 91 1 24 84
M  V30 92 1 25 52
M  V30 93 1 27 87
M  V30 94 1 28 76
M  V30 95 1 29 72
M  V30 96 1 30 63
M  V30 97 1 32 51
M  V30 98 1 33 78
M  V30 99 1 34 90
M  V30 100 1 35 60
M  V30 101 1 37 54
M  V30 102 1 38 97
M  V30 103 1 39 69
M  V30 104 1 40 96
M  V30 105 1 42 57
M  V30 106 1 43 75
M  V30 107 1 44 99
M  V30 108 1 45 93
M  V30 END BOND
M  V30 END CTAB
M  END

$$$$
