
     RDKit          3D

  0  0  0  0  0  0  0  0  0  0999 V3000
M  V30 BEGIN CTAB
M  V30 COUNTS 99 108 0 0 0
M  V30 BEGIN ATOM
M  V30 1 Pd 1.4439 1.2275 -5.3927 0
M  V30 2 Pb 0.5641 1.5400 -5.7440 0
M  V30 3 Pb 2.2743 0.7422 -5.0594 0
M  V30 4 Pb 1.7296 1.0374 -6.3247 0
M  V30 5 Pb 1.1474 1.5079 -4.4750 0
M  V30 6 Pd 3.7419 -4.0372 -5.6057 0
M  V30 7 Pb 3.6038 -4.3829 -4.6803 0
M  V30 8 Pb 3.8674 -3.7152 -6.5373 0
M  V30 9 Pb 3.9549 -3.1038 -5.2560 0
M  V30 10 Pb 3.3624 -4.8962 -5.9535 0
M  V30 11 Pd -1.0776 4.1785 2.0599 0
M  V30 12 Pb -2.0634 3.9994 2.0158 0
M  V30 13 Pb -0.0803 4.2454 2.0997 0
M  V30 14 Pb -1.1808 4.9020 2.7512 0
M  V30 15 Pb -0.9482 3.5432 1.3002 0
M  V30 16 Pd -0.0030 4.9703 7.2103 0
M  V30 17 Pb 0.2569 4.1311 7.7077 0
M  V30 18 Pb -0.9521 4.7121 7.3463 0
M  V30 19 Pb 0.9590 5.1441 7.0184 0
M  V30 20 Pb -0.3000 5.6770 6.5718 0
M  V30 21 Pd -2.6769 -0.9656 -3.8607 0
M  V30 22 Pb -2.7605 -1.5301 -3.0413 0
M  V30 23 Pb -3.0569 -1.6975 -4.4301 0
M  V30 24 Pb -2.1968 -0.2948 -3.2979 0
M  V30 25 Pb -2.6089 -0.3399 -4.6391 0
M  V30 26 Pd -0.6297 -5.4395 -4.1134 0
M  V30 27 Pb 0.1798 -5.5954 -3.5515 0
M  V30 28 Pb -1.0047 -4.8888 -3.3737 0
M  V30 29 Pb -0.1742 -5.9353 -4.8554 0
M  V30 30 Pb -1.4283 -5.2035 -4.6693 0
M  V30 31 Pd -3.5269 -0.0784 3.6468 0
M  V30 32 Pb -3.3952 -0.6867 2.8625 0
M  V30 33 Pb -3.0828 -0.7460 4.2491 0
M  V30 34 Pb -3.8948 0.6570 3.0722 0
M  V30 35 Pb -3.6999 0.5125 4.4285 0
M  V30 36 Pd 1.2762 0.4694 0.3638 0
M  V30 37 Pb 1.6323 -0.1699 1.0465 0
M  V30 38 Pb 1.8047 1.2326 0.7410 0
M  V30 39 Pb 0.9428 1.0746 -0.3590 0
M  V30 40 Pb 0.6575 -0.2476 0.0483 0
M  V30 41 Pd 1.4512 -0.3254 5.8340 0
M  V30 42 Pb 2.2806 0.2221 5.7564 0
M  V30 43 Pb 1.1973 0.2410 6.6347 0
M  V30 44 Pb 0.6050 -0.8645 5.8945 0
M  V30 45 Pb 1.7297 -0.8467 5.0298 0
M  V30 46 Ag 1.6730 5.0597 6.8371 0
M  V30 47 Fe 2.7420 3.0561 6.2030 0
M  V30 48 Ag 2.8092 0.7445 5.7385 0
M  V30 49 Ag 1.9886 0.8039 -6.9772 0
M  V30 50 Fe 3.0386 -1.1970 -7.6283 0
M  V30 51 Ag 3.8753 -3.3472 -7.1777 0
M  V30 52 Ag -1.2192 -4.4371 -2.8206 0
M  V30 53 Fe -0.5619 -2.6030 -1.4684 0
M  V30 54 Ag 0.1562 -0.7669 -0.1500 0
M  V30 55 Ag -2.8154 -1.8816 -2.3825 0
M  V30 56 Fe -3.0638 -1.5700 -0.0410 0
M  V30 57 Ag -3.3137 -1.1606 2.2852 0
M  V30 58 Ag -0.8046 3.1249 0.6959 0
M  V30 59 Fe -1.3765 1.6359 -1.0622 0
M  V30 60 Ag -1.7743 0.1572 -2.8760 0
M  V30 61 Ag -1.6329 4.4180 7.3766 0
M  V30 62 Fe -2.8826 2.7291 6.2886 0
M  V30 63 Ag -3.8194 0.9865 4.9903 0
M  V30 64 Ba -1.2299 5.4926 3.2211 0
M  V30 65 Ga -0.9007 5.8186 4.6256 0
M  V30 66 Ba -0.5683 6.1235 6.0341 0
M  V30 67 Ba 1.8910 -0.6930 1.5190 0
M  V30 68 Ga 1.9176 -0.9403 2.9722 0
M  V30 69 Ba 1.9600 -1.2143 4.4203 0
M  V30 70 Ba 2.9820 -5.4989 -6.1933 0
M  V30 71 Ga 1.6202 -5.9448 -5.8280 0
M  V30 72 Ba 0.2533 -6.2769 -5.3718 0
M  V30 73 Ba 2.8954 0.3477 -4.8369 0
M  V30 74 Ga 3.4533 -1.0406 -4.9373 0
M  V30 75 Ba 4.0920 -2.3964 -4.9856 0
M  V30 76 Ba -2.7253 -1.2153 4.7173 0
M  V30 77 Ga -1.3724 -1.2451 5.3185 0
M  V30 78 Ba -0.0222 -1.2838 5.9253 0
M  V30 79 Ba -3.2791 -2.2837 -4.8460 0
M  V30 80 Ga -2.6995 -3.6365 -4.9834 0
M  V30 81 Ba -2.0336 -4.9550 -5.0391 0
M  V30 82 Ba 0.8691 1.8024 -3.8383 0
M  V30 83 Ga 0.8185 1.6143 -2.3733 0
M  V30 84 Ba 0.6970 1.5289 -0.9026 0
M  V30 85 Ba 3.4490 -4.6866 -4.0153 0
M  V30 86 Ga 2.1630 -5.1926 -3.5132 0
M  V30 87 Ba 0.8117 -5.6496 -3.1563 0
M  V30 88 Ba -2.7823 3.7846 1.9470 0
M  V30 89 Ga -3.4890 2.5357 2.3120 0
M  V30 90 Ba -4.1419 1.2650 2.7013 0
M  V30 91 Ba -0.1277 1.6637 -5.9996 0
M  V30 92 Ga -1.3694 0.9597 -5.6304 0
M  V30 93 Ba -2.5366 0.1827 -5.1739 0
M  V30 94 Ba 0.4077 3.4661 8.0443 0
M  V30 95 Ga 0.7341 2.0777 7.6111 0
M  V30 96 Ba 1.0609 0.6685 7.2520 0
M  V30 97 Ba 0.6681 4.1886 2.0866 0
M  V30 98 Ga 1.4717 3.0567 1.5804 0
M  V30 99 Ba 2.1228 1.8474 1.0354 0
M  V30 END ATOM
M  V30 BEGIN BOND
M  V30 1 1 1 2
M  V30 2 1 1 3
M  V30 3 1 1 4
M  V30 4 1 1 5
M  V30 5 1 6 7
M  V30 6 1 6 8
M  V30 7 1 6 9
M  V30 8 1 6 10
M  V30 9 1 11 12
M  V30 10 1 11 13
M  V30 11 1 11 14
M  V30 12 1 11 15
M  V30 13 1 16 17
M  V30 14 1 16 18
M  V30 15 1 16 19
M  V30 16 1 16 20
M  V30 17 1 21 22
M  V30 18 1 21 23
M  V30 19 1 21 24
M  V30 20 1 21 25
M  V30 21 1 26 27
M  V30 22 1 26 28
M  V30 23 1 26 29
M  V30 24 1 26 30
M  V30 25 1 31 32
M  V30 26 1 31 33
M  V30 27 1 31 34
M  V30 28 1 31 35
M  V30 29 1 36 37
M  V30 30 1 36 38
M  V30 31 1 36 39
M  V30 32 1 36 40
M  V30 33 1 41 42
M  V30 34 1 41 43
M  V30 35 1 41 44
M  V30 36 1 41 45
M  V30 37 1 46 47
M  V30 38 1 47 48
M  V30 39 1 49 50
M  V30 40 1 50 51
M  V30 41 1 52 53
M  V30 42 1 53 54
M  V30 43 1 55 56
M  V30 44 1 56 57
M  V30 45 1 58 59
M  V30 46 1 59 60
M  V30 47 1 61 62
M  V30 48 1 62 63
M  V30 49 1 64 65
M  V30 50 1 65 66
M  V30 51 1 67 68
M  V30 52 1 68 69
M  V30 53 1 70 71
M  V30 54 1 71 72
M  V30 55 1 73 74
M  V30 56 1 74 75
M  V30 57 1 76 77
M  V30 58 1 77 78
M  V30 59 1 79 80
M  V30 60 1 80 81
M  V30 61 1 82 83
M  V30 62 1 83 84
M  V30 63 1 85 86
M  V30 64 1 86 87
M  V30 65 1 88 89
M  V30 66 1 89 90
M  V30 67 1 91 92
M  V30 68 1 92 93
M  V30 69 1 94 95
M  V30 70 1 95 96
M  V30 71 1 97 98
M  V30 72 1 98 99
M  V30 73 1 2 91
M  V30 74 1 3 73
M  V30 75 1 4 49
M  V30 76 1 5 82
M  V30 77 1 7 85
M  V30 78 1 8 51
M  V30 79 1 9 75
M  V30 80 1 10 70
M  V30 81 1 12 88
M  V30 82 1 13 97
M  V30 83 1 14 64
M  V30 84 1 15 58
M  V30 85 1 17 94
M  V30 86 1 18 61
M  V30 87 1 19 46
M  V30 88 1 20 66
M  V30 89 1 22 55
M  V30 90 1 23 79
M  V30 91 1 24 60
M  V30 92 1 25 93
M  V30 93 1 27 87
M  V30 94 1 28 52
M  V30 95 1 29 72
M  V30 96 1 30 81
M  V30 97 1 32 57
M  V30 98 1 33 76
M  V30 99 1 34 90
M  V30 100 1 35 63
M  V30 101 1 37 67
M  V30 102 1 38 99
M  V30 103 1 39 84
M  V30 104 1 40 54
M  V30 105 1 42 48
M  V30 106 1 43 96
M  V30 107 1 44 78
M  V30 108 1 45 69
M  V30 END BOND
M  V30 END CTAB
M  END

$$$$
