
     RDKit          3D

  0  0  0  0  0  0  0  0  0  0999 V3000
M  V30 BEGIN CTAB
M  V30 COUNTS 99 108 0 0 0
M  V30 BEGIN ATOM
M  V30 1 Pd 5.0955 -1.4529 0.4967 0
M  V30 2 Pb 5.4857 -0.5595 0.7467 0
M  V30 3 Pb 4.8068 -2.3960 0.3146 0
M  V30 4 Pb 5.3462 -1.4048 -0.4761 0
M  V30 5 Pb 4.8305 -1.5382 1.4573 0
M  V30 6 Pd -4.8383 -4.3582 0.1067 0
M  V30 7 Pb -4.6184 -3.4475 -0.2448 0
M  V30 8 Pb -4.4168 -4.7619 -0.7058 0
M  V30 9 Pb -5.0886 -4.0118 1.0084 0
M  V30 10 Pb -4.9144 -5.2838 0.4690 0
M  V30 11 Pd -2.0521 6.2548 0.3020 0
M  V30 12 Pb -1.4787 5.9317 1.0594 0
M  V30 13 Pb -2.8874 5.9381 0.7529 0
M  V30 14 Pb -2.5838 6.5225 -0.5032 0
M  V30 15 Pb -1.2104 6.5816 -0.1223 0
M  V30 16 Pd -2.8615 3.5240 -4.0185 0
M  V30 17 Pb -3.1791 4.4495 -3.8051 0
M  V30 18 Pb -1.9975 3.8731 -4.3732 0
M  V30 19 Pb -3.7356 3.1665 -3.6879 0
M  V30 20 Pb -2.4862 2.6047 -4.1748 0
M  V30 21 Pd -4.5431 1.5621 0.6088 0
M  V30 22 Pb -4.2829 0.7008 0.1715 0
M  V30 23 Pb -4.7839 2.4508 0.9958 0
M  V30 24 Pb -5.0610 1.7645 -0.2200 0
M  V30 25 Pb -3.9855 1.3918 1.4222 0
M  V30 26 Pd 3.8698 0.7960 -4.6282 0
M  V30 27 Pb 3.4035 1.6160 -4.9518 0
M  V30 28 Pb 4.7159 1.3125 -4.5399 0
M  V30 29 Pb 4.3523 0.0154 -4.2249 0
M  V30 30 Pb 2.9728 0.3461 -4.6494 0
M  V30 31 Pd 4.9463 4.3842 0.8496 0
M  V30 32 Pb 5.4019 3.5791 1.2326 0
M  V30 33 Pb 5.6198 4.3706 0.1168 0
M  V30 34 Pb 4.4607 5.1309 0.4003 0
M  V30 35 Pb 4.2044 4.3779 1.5237 0
M  V30 36 Pd -0.4665 -2.7683 5.5228 0
M  V30 37 Pb -0.7396 -1.8232 5.3572 0
M  V30 38 Pb -0.1844 -3.7257 5.5965 0
M  V30 39 Pb -1.4395 -2.9913 5.4665 0
M  V30 40 Pb 0.4997 -2.5197 5.4841 0
M  V30 41 Pd 0.7253 -8.0026 0.7823 0
M  V30 42 Pb 0.3483 -7.8694 -0.1345 0
M  V30 43 Pb 1.5799 -7.5551 0.5166 0
M  V30 44 Pb 0.9836 -7.9871 1.7467 0
M  V30 45 Pb -0.1693 -8.3588 1.0433 0
M  V30 46 Ag -3.5620 1.3276 2.0391 0
M  V30 47 Fe -2.2724 0.1056 3.6145 0
M  V30 48 Ag -0.9891 -1.1423 5.1747 0
M  V30 49 Ag -1.3290 4.0544 -4.6525 0
M  V30 50 Fe 0.8820 3.2548 -4.9597 0
M  V30 51 Ag 3.0110 2.2254 -5.1329 0
M  V30 52 Ag -0.5401 6.7967 -0.3735 0
M  V30 53 Fe 1.7808 6.3264 -0.2437 0
M  V30 54 Ag 4.0302 5.6399 0.0622 0
M  V30 55 Ag -4.8197 -5.9782 0.7246 0
M  V30 56 Fe -2.9987 -7.4563 1.0617 0
M  V30 57 Ag -0.8831 -8.5150 1.1980 0
M  V30 58 Ag -3.9909 -5.1186 -1.2103 0
M  V30 59 Fe -2.0167 -6.4398 -1.2273 0
M  V30 60 Ag -0.0525 -7.6842 -0.7411 0
M  V30 61 Ag -0.9821 5.6774 1.5661 0
M  V30 62 Fe 1.2827 5.0211 1.8831 0
M  V30 63 Ag 3.5842 4.4211 1.9485 0
M  V30 64 Ag -2.1230 1.9504 -4.2795 0
M  V30 65 Fe 0.0171 0.9255 -4.4826 0
M  V30 66 Ag 2.2522 0.1223 -4.6576 0
M  V30 67 Ag -5.1512 -3.8395 1.7340 0
M  V30 68 Fe -3.7919 -3.4364 3.6382 0
M  V30 69 Ag -2.1741 -3.0702 5.3369 0
M  V30 70 Ag 4.6320 -1.5845 2.1792 0
M  V30 71 Fe 2.9607 -1.9593 3.8234 0
M  V30 72 Ag 1.2232 -2.3504 5.3933 0
M  V30 73 Ag 0.0824 -4.4273 5.5774 0
M  V30 74 Fe 0.6328 -6.2431 4.1489 0
M  V30 75 Ag 1.0694 -7.8779 2.4826 0
M  V30 76 Ag 4.6693 -3.1225 0.1717 0
M  V30 77 Fe 3.4067 -5.1349 0.2587 0
M  V30 78 Ag 2.1955 -7.1801 0.3066 0
M  V30 79 Ag 5.2984 1.7380 -4.3588 0
M  V30 80 Fe 5.9373 3.0990 -2.5326 0
M  V30 81 Ag 6.0458 4.2817 -0.4867 0
M  V30 82 Ba -4.3582 -2.8131 -0.5508 0
M  V30 83 Ga -4.2755 -1.3571 -0.3241 0
M  V30 84 Ba -4.1009 0.1066 -0.2494 0
M  V30 85 Ba 5.8227 0.0421 1.0594 0
M  V30 86 Ga 5.7468 1.5122 1.2187 0
M  V30 87 Ba 5.7862 2.9733 1.4572 0
M  V30 88 Ba -4.4037 2.9287 -3.4418 0
M  V30 89 Ga -4.9230 2.4142 -2.1617 0
M  V30 90 Ba -5.4091 1.9019 -0.8677 0
M  V30 91 Ba -2.9652 6.6881 -1.1291 0
M  V30 92 Ga -3.2030 5.9370 -2.3788 0
M  V30 93 Ba -3.4060 5.1373 -3.6042 0
M  V30 94 Ba 5.5120 -1.4861 -1.2093 0
M  V30 95 Ga 5.1175 -0.9690 -2.5401 0
M  V30 96 Ba 4.7870 -0.5129 -3.9101 0
M  V30 97 Ba -3.5174 5.7079 1.0899 0
M  V30 98 Ga -4.2366 4.4245 1.1911 0
M  V30 99 Ba -4.9349 3.1285 1.2758 0
M  V30 END ATOM
M  V30 BEGIN BOND
M  V30 1 1 1 2
M  V30 2 1 1 3
M  V30 3 1 1 4
M  V30 4 1 1 5
M  V30 5 1 6 7
M  V30 6 1 6 8
M  V30 7 1 6 9
M  V30 8 1 6 10
M  V30 9 1 11 12
M  V30 10 1 11 13
M  V30 11 1 11 14
M  V30 12 1 11 15
M  V30 13 1 16 17
M  V30 14 1 16 18
M  V30 15 1 16 19
M  V30 16 1 16 20
M  V30 17 1 21 22
M  V30 18 1 21 23
M  V30 19 1 21 24
M  V30 20 1 21 25
M  V30 21 1 26 27
M  V30 22 1 26 28
M  V30 23 1 26 29
M  V30 24 1 26 30
M  V30 25 1 31 32
M  V30 26 1 31 33
M  V30 27 1 31 34
M  V30 28 1 31 35
M  V30 29 1 36 37
M  V30 30 1 36 38
M  V30 31 1 36 39
M  V30 32 1 36 40
M  V30 33 1 41 42
M  V30 34 1 41 43
M  V30 35 1 41 44
M  V30 36 1 41 45
M  V30 37 1 46 47
M  V30 38 1 47 48
M  V30 39 1 49 50
M  V30 40 1 50 51
M  V30 41 1 52 53
M  V30 42 1 53 54
M  V30 43 1 55 56
M  V30 44 1 56 57
M  V30 45 1 58 59
M  V30 46 1 59 60
M  V30 47 1 61 62
M  V30 48 1 62 63
M  V30 49 1 64 65
M  V30 50 1 65 66
M  V30 51 1 67 68
M  V30 52 1 68 69
M  V30 53 1 70 71
M  V30 54 1 71 72
M  V30 55 1 73 74
M  V30 56 1 74 75
M  V30 57 1 76 77
M  V30 58 1 77 78
M  V30 59 1 79 80
M  V30 60 1 80 81
M  V30 61 1 82 83
M  V30 62 1 83 84
M  V30 63 1 85 86
M  V30 64 1 86 87
M  V30 65 1 88 89
M  V30 66 1 89 90
M  V30 67 1 91 92
M  V30 68 1 92 93
M  V30 69 1 94 95
M  V30 70 1 95 96
M  V30 71 1 97 98
M  V30 72 1 98 99
M  V30 73 1 2 85
M  V30 74 1 3 76
M  V30 75 1 4 94
M  V30 76 1 5 70
M  V30 77 1 7 82
M  V30 78 1 8 58
M  V30 79 1 9 67
M  V30 80 1 10 55
M  V30 81 1 12 61
M  V30 82 1 13 97
M  V30 83 1 14 91
M  V30 84 1 15 52
M  V30 85 1 17 93
M  V30 86 1 18 49
M  V30 87 1 19 88
M  V30 88 1 20 64
M  V30 89 1 22 84
M  V30 90 1 23 99
M  V30 91 1 24 90
M  V30 92 1 25 46
M  V30 93 1 27 51
M  V30 94 1 28 79
M  V30 95 1 29 96
M  V30 96 1 30 66
M  V30 97 1 32 87
M  V30 98 1 33 81
M  V30 99 1 34 54
M  V30 100 1 35 63
M  V30 101 1 37 48
M  V30 102 1 38 73
M  V30 103 1 39 69
M  V30 104 1 40 72
M  V30 105 1 42 60
M  V30 106 1 43 78
M  V30 107 1 44 75
M  V30 108 1 45 57
M  V30 END BOND
M  V30 END CTAB
M  END

$$$$
