
     RDKit          3D

  0  0  0  0  0  0  0  0  0  0999 V3000
M  V30 BEGIN CTAB
M  V30 COUNTS 99 108 0 0 0
M  V30 BEGIN ATOM
M  V30 1 Pd 1.5789 2.1306 -6.1796 0
M  V30 2 Pb 0.9376 2.2523 -5.4231 0
M  V30 3 Pb 2.1856 1.9201 -6.9449 0
M  V30 4 Pb 0.8638 2.3533 -6.8432 0
M  V30 5 Pb 2.2945 1.8768 -5.5288 0
M  V30 6 Pd 0.1326 -1.0172 -9.5245 0
M  V30 7 Pb 0.5331 -1.9215 -9.3847 0
M  V30 8 Pb -0.2636 -0.1011 -9.5421 0
M  V30 9 Pb 1.0393 -0.5987 -9.5764 0
M  V30 10 Pb -0.7731 -1.4237 -9.4115 0
M  V30 11 Pd -1.8776 -3.1623 4.7005 0
M  V30 12 Pb -2.7243 -2.6387 4.7365 0
M  V30 13 Pb -0.9807 -3.5877 4.6105 0
M  V30 14 Pb -1.6287 -2.7533 5.5783 0
M  V30 15 Pb -2.1409 -3.5712 3.8249 0
M  V30 16 Pd -0.5903 3.3824 8.3755 0
M  V30 17 Pb -0.4306 4.3429 8.1714 0
M  V30 18 Pb -1.5223 3.4942 8.0289 0
M  V30 19 Pb 0.3823 3.2923 8.6005 0
M  V30 20 Pb -0.7180 2.4001 8.5085 0
M  V30 21 Pd -2.0880 -1.6721 -0.6038 0
M  V30 22 Pb -1.5234 -1.3195 0.1398 0
M  V30 23 Pb -2.6269 -2.0454 -1.3592 0
M  V30 24 Pb -2.2688 -2.5017 -0.0738 0
M  V30 25 Pb -1.9230 -0.8265 -1.1134 0
M  V30 26 Pd -1.1733 -3.9197 -5.6551 0
M  V30 27 Pb -0.4617 -4.1124 -6.3333 0
M  V30 28 Pb -0.5382 -4.1627 -4.9205 0
M  V30 29 Pb -1.7800 -3.6555 -6.4044 0
M  V30 30 Pb -1.9067 -3.7209 -5.0016 0
M  V30 31 Pd -2.1960 1.9714 3.7941 0
M  V30 32 Pb -1.6490 1.3183 3.2710 0
M  V30 33 Pb -1.5960 2.6998 3.4477 0
M  V30 34 Pb -2.8348 1.2509 4.0730 0
M  V30 35 Pb -2.6846 2.5876 4.4126 0
M  V30 36 Pd 3.6935 -1.8856 0.1251 0
M  V30 37 Pb 4.0522 -1.2090 0.7695 0
M  V30 38 Pb 3.4587 -2.4829 0.8904 0
M  V30 39 Pb 3.9248 -1.2819 -0.6383 0
M  V30 40 Pb 3.2978 -2.5595 -0.5011 0
M  V30 41 Pd 2.5330 4.1818 4.9678 0
M  V30 42 Pb 2.9295 3.9630 5.8597 0
M  V30 43 Pb 2.0292 4.9245 5.4047 0
M  V30 44 Pb 1.9949 4.3284 4.1401 0
M  V30 45 Pb 3.0773 3.4661 4.5256 0
M  V30 46 Ag -1.4842 -2.4224 6.2357 0
M  V30 47 Fe -1.1265 -0.4088 7.4428 0
M  V30 48 Ag -0.7783 1.6550 8.5648 0
M  V30 49 Ag 4.3054 -0.7046 1.2650 0
M  V30 50 Fe 3.8892 1.1228 2.7265 0
M  V30 51 Ag 3.5169 2.9502 4.1998 0
M  V30 52 Ag 2.8267 1.6697 -5.0427 0
M  V30 53 Fe 3.4674 0.4271 -3.1225 0
M  V30 54 Ag 4.1004 -0.8183 -1.2016 0
M  V30 55 Ag -0.0330 -4.3413 -4.3940 0
M  V30 56 Fe 1.4688 -3.6962 -2.6689 0
M  V30 57 Ag 2.9782 -3.0785 -0.9404 0
M  V30 58 Ag 0.4480 2.2845 -4.8569 0
M  V30 59 Fe -0.6876 1.0776 -3.1554 0
M  V30 60 Ag -1.7960 -0.1787 -1.4716 0
M  V30 61 Ag -0.2916 -3.8362 4.4664 0
M  V30 62 Fe 1.5522 -3.4709 3.0197 0
M  V30 63 Ag 3.2551 -2.9202 1.4630 0
M  V30 64 Ba -1.4349 -1.7469 -9.2753 0
M  V30 65 Ga -1.8683 -2.5980 -8.1527 0
M  V30 66 Ba -2.1978 -3.4385 -6.9877 0
M  V30 67 Ba 2.5846 1.7035 -7.5407 0
M  V30 68 Ga 2.2116 0.7385 -8.5905 0
M  V30 69 Ba 1.6997 -0.2438 -9.5630 0
M  V30 70 Ba -1.1508 3.2151 3.1206 0
M  V30 71 Ga 0.1797 3.8208 3.3417 0
M  V30 72 Ba 1.5101 4.4212 3.5770 0
M  V30 73 Ba 1.1292 3.2559 8.6847 0
M  V30 74 Ga 2.1871 3.5029 7.6825 0
M  V30 75 Ba 3.1128 3.7816 6.5648 0
M  V30 76 Ba 0.3477 2.4765 -7.3739 0
M  V30 77 Ga -0.1360 1.5925 -8.4497 0
M  V30 78 Ba -0.5194 0.5981 -9.4676 0
M  V30 79 Ba -3.0287 -2.3462 -1.9169 0
M  V30 80 Ga -2.7319 -2.9525 -3.2303 0
M  V30 81 Ba -2.4890 -3.5679 -4.5505 0
M  V30 82 Ba 0.8027 -2.5954 -9.1998 0
M  V30 83 Ga 0.4612 -3.4556 -8.0507 0
M  V30 84 Ba 0.0484 -4.2396 -6.8706 0
M  V30 85 Ba -3.3079 -2.1739 4.7589 0
M  V30 86 Ga -3.3538 -0.7202 4.5167 0
M  V30 87 Ba -3.3459 0.7330 4.2656 0
M  V30 88 Ba -1.0784 -1.0656 0.6845 0
M  V30 89 Ga -1.1742 -0.1041 1.7971 0
M  V30 90 Ba -1.1851 0.8377 2.9302 0
M  V30 91 Ba -2.3289 -3.8947 3.1732 0
M  V30 92 Ga -2.3687 -3.4951 1.7522 0
M  V30 93 Ba -2.4175 -3.1205 0.3247 0
M  V30 94 Ba -0.2614 5.0287 7.9372 0
M  V30 95 Ga 0.6809 5.3471 6.8581 0
M  V30 96 Ba 1.6522 5.4615 5.7635 0
M  V30 97 Ba -2.1822 3.6223 7.6938 0
M  V30 98 Ga -2.6542 3.3234 6.3266 0
M  V30 99 Ba -3.0419 2.9812 4.9432 0
M  V30 END ATOM
M  V30 BEGIN BOND
M  V30 1 1 1 2
M  V30 2 1 1 3
M  V30 3 1 1 4
M  V30 4 1 1 5
M  V30 5 1 6 7
M  V30 6 1 6 8
M  V30 7 1 6 9
M  V30 8 1 6 10
M  V30 9 1 11 12
M  V30 10 1 11 13
M  V30 11 1 11 14
M  V30 12 1 11 15
M  V30 13 1 16 17
M  V30 14 1 16 18
M  V30 15 1 16 19
M  V30 16 1 16 20
M  V30 17 1 21 22
M  V30 18 1 21 23
M  V30 19 1 21 24
M  V30 20 1 21 25
M  V30 21 1 26 27
M  V30 22 1 26 28
M  V30 23 1 26 29
M  V30 24 1 26 30
M  V30 25 1 31 32
M  V30 26 1 31 33
M  V30 27 1 31 34
M  V30 28 1 31 35
M  V30 29 1 36 37
M  V30 30 1 36 38
M  V30 31 1 36 39
M  V30 32 1 36 40
M  V30 33 1 41 42
M  V30 34 1 41 43
M  V30 35 1 41 44
M  V30 36 1 41 45
M  V30 37 1 46 47
M  V30 38 1 47 48
M  V30 39 1 49 50
M  V30 40 1 50 51
M  V30 41 1 52 53
M  V30 42 1 53 54
M  V30 43 1 55 56
M  V30 44 1 56 57
M  V30 45 1 58 59
M  V30 46 1 59 60
M  V30 47 1 61 62
M  V30 48 1 62 63
M  V30 49 1 64 65
M  V30 50 1 65 66
M  V30 51 1 67 68
M  V30 52 1 68 69
M  V30 53 1 70 71
M  V30 54 1 71 72
M  V30 55 1 73 74
M  V30 56 1 74 75
M  V30 57 1 76 77
M  V30 58 1 77 78
M  V30 59 1 79 80
M  V30 60 1 80 81
M  V30 61 1 82 83
M  V30 62 1 83 84
M  V30 63 1 85 86
M  V30 64 1 86 87
M  V30 65 1 88 89
M  V30 66 1 89 90
M  V30 67 1 91 92
M  V30 68 1 92 93
M  V30 69 1 94 95
M  V30 70 1 95 96
M  V30 71 1 97 98
M  V30 72 1 98 99
M  V30 73 1 2 58
M  V30 74 1 3 67
M  V30 75 1 4 76
M  V30 76 1 5 52
M  V30 77 1 7 82
M  V30 78 1 8 78
M  V30 79 1 9 69
M  V30 80 1 10 64
M  V30 81 1 12 85
M  V30 82 1 13 61
M  V30 83 1 14 46
M  V30 84 1 15 91
M  V30 85 1 17 94
M  V30 86 1 18 97
M  V30 87 1 19 73
M  V30 88 1 20 48
M  V30 89 1 22 88
M  V30 90 1 23 79
M  V30 91 1 24 93
M  V30 92 1 25 60
M  V30 93 1 27 84
M  V30 94 1 28 55
M  V30 95 1 29 66
M  V30 96 1 30 81
M  V30 97 1 32 90
M  V30 98 1 33 70
M  V30 99 1 34 87
M  V30 100 1 35 99
M  V30 101 1 37 49
M  V30 102 1 38 63
M  V30 103 1 39 54
M  V30 104 1 40 57
M  V30 105 1 42 75
M  V30 106 1 43 96
M  V30 107 1 44 72
M  V30 108 1 45 51
M  V30 END BOND
M  V30 END CTAB
M  END

$$$$
