
     RDKit          3D

  0  0  0  0  0  0  0  0  0  0999 V3000
M  V30 BEGIN CTAB
M  V30 COUNTS 99 108 0 0 0
M  V30 BEGIN ATOM
M  V30 1 Pd 5.3693 1.9378 -1.8469 0
M  V30 2 Pb 4.9927 2.4724 -1.0835 0
M  V30 3 Pb 5.9043 1.4326 -2.5153 0
M  V30 4 Pb 5.2600 1.0731 -1.3333 0
M  V30 5 Pb 5.2932 2.7262 -2.4574 0
M  V30 6 Pd -1.0775 0.3384 4.3336 0
M  V30 7 Pb -2.0462 0.5694 4.3181 0
M  V30 8 Pb -1.3424 -0.5937 4.6262 0
M  V30 9 Pb -0.8541 1.2843 4.5863 0
M  V30 10 Pb -1.2453 -0.3694 3.6349 0
M  V30 11 Pd -2.3824 0.2662 -3.0085 0
M  V30 12 Pb -2.3683 -0.1436 -2.1024 0
M  V30 13 Pb -2.2692 0.7047 -3.8968 0
M  V30 14 Pb -2.3869 1.1684 -2.5879 0
M  V30 15 Pb -2.1896 -0.6535 -3.3335 0
M  V30 16 Pd 0.1554 -5.9459 -0.5509 0
M  V30 17 Pb -0.2768 -6.1104 0.3483 0
M  V30 18 Pb 0.6720 -6.2987 -1.3355 0
M  V30 19 Pb -0.7063 -6.2175 -0.9709 0
M  V30 20 Pb -0.3190 -5.1837 -0.0918 0
M  V30 21 Pd 3.8626 -3.7733 -2.5316 0
M  V30 22 Pb 4.8243 -3.7941 -2.7799 0
M  V30 23 Pb 4.0557 -2.9431 -1.9733 0
M  V30 24 Pb 3.6655 -4.6405 -2.9792 0
M  V30 25 Pb 2.8672 -3.6884 -2.4908 0
M  V30 26 Pd -4.1549 -4.5209 3.1408 0
M  V30 27 Pb -4.8661 -3.8356 3.2644 0
M  V30 28 Pb -3.3878 -5.1581 2.9845 0
M  V30 29 Pb -4.6485 -4.9573 2.3941 0
M  V30 30 Pb -3.5950 -4.0479 3.8365 0
M  V30 31 Pd -0.5515 5.1753 -3.7310 0
M  V30 32 Pb -1.3548 5.0427 -3.1182 0
M  V30 33 Pb -0.3370 6.0125 -3.2428 0
M  V30 34 Pb -0.8090 4.3857 -4.2965 0
M  V30 35 Pb 0.3396 5.2453 -4.1802 0
M  V30 36 Pd 1.7703 1.8991 2.4353 0
M  V30 37 Pb 0.9056 1.6978 2.8981 0
M  V30 38 Pb 1.2174 1.0868 2.2700 0
M  V30 39 Pb 1.1928 2.4191 1.8076 0
M  V30 40 Pb 2.5448 2.4774 2.1819 0
M  V30 41 Pd -2.0095 4.7334 1.9560 0
M  V30 42 Pb -2.1868 3.7714 2.1474 0
M  V30 43 Pb -1.6020 4.7228 2.8668 0
M  V30 44 Pb -2.3516 4.6985 0.9934 0
M  V30 45 Pb -1.7660 5.6872 1.8263 0
M  V30 46 Ag -1.4114 -6.3707 -1.1495 0
M  V30 47 Fe -3.4452 -6.0165 -0.0055 0
M  V30 48 Ag -4.8349 -5.2927 1.7590 0
M  V30 49 Ag 6.3250 0.9506 -2.8918 0
M  V30 50 Fe 6.3222 -1.3879 -3.1969 0
M  V30 51 Ag 5.4846 -3.5854 -3.0388 0
M  V30 52 Ag -2.7878 0.5973 4.2839 0
M  V30 53 Fe -4.4255 -1.0488 3.8656 0
M  V30 54 Ag -5.2432 -3.2077 3.3803 0
M  V30 55 Ag -1.4166 -0.8883 3.1090 0
M  V30 56 Fe -0.9777 -2.7587 1.6981 0
M  V30 57 Ag -0.7043 -4.6131 0.2257 0
M  V30 58 Ag -0.2518 6.5998 -2.8017 0
M  V30 59 Fe -0.7505 6.9805 -0.5345 0
M  V30 60 Ag -1.5231 6.3445 1.5937 0
M  V30 61 Ag 5.1017 3.2598 -2.9494 0
M  V30 62 Fe 3.1786 4.3710 -3.7935 0
M  V30 63 Ag 1.0618 5.2751 -4.3828 0
M  V30 64 Ag -2.2324 -0.4341 -1.4308 0
M  V30 65 Fe -0.8216 -0.1077 0.4420 0
M  V30 66 Ag 0.7279 0.5477 2.1076 0
M  V30 67 Ag -2.2450 1.7931 -2.2069 0
M  V30 68 Fe -0.8266 2.4642 -0.4297 0
M  V30 69 Ag 0.7085 2.7643 1.3526 0
M  V30 70 Ag -1.9335 -1.3505 -3.4033 0
M  V30 71 Fe 0.0667 -2.5812 -3.0542 0
M  V30 72 Ag 2.1313 -3.6804 -2.6440 0
M  V30 73 Ba -2.1249 1.1001 -4.5148 0
M  V30 74 Ga -1.5753 2.4644 -4.6540 0
M  V30 75 Ba -1.0224 3.8303 -4.7613 0
M  V30 76 Ba 1.0760 -6.5497 -1.9198 0
M  V30 77 Ga 2.2449 -5.9911 -2.6248 0
M  V30 78 Ba 3.4027 -5.2967 -3.2172 0
M  V30 79 Ba 0.2017 1.5299 3.1029 0
M  V30 80 Ga -1.0552 2.2393 2.7992 0
M  V30 81 Ba -2.2097 3.0783 2.4278 0
M  V30 82 Ba -0.5867 -6.2873 1.0203 0
M  V30 83 Ga -1.7130 -5.9100 1.9153 0
M  V30 84 Ba -2.7971 -5.6263 2.8934 0
M  V30 85 Ba -1.9424 4.9298 -2.6340 0
M  V30 86 Ga -2.2195 4.8168 -1.1635 0
M  V30 87 Ba -2.6300 4.6839 0.2737 0
M  V30 88 Ba -0.7123 1.9962 4.7914 0
M  V30 89 Ga -0.9778 3.3220 4.1958 0
M  V30 90 Ba -1.2778 4.6068 3.5314 0
M  V30 91 Ba 5.1166 0.4169 -0.9723 0
M  V30 92 Ga 4.6810 -0.9741 -1.3022 0
M  V30 93 Ba 4.2491 -2.3942 -1.4713 0
M  V30 94 Ba -1.5451 -1.2746 4.9015 0
M  V30 95 Ga -2.3659 -2.4708 4.5678 0
M  V30 96 Ba -3.1478 -3.7199 4.3566 0
M  V30 97 Ba 4.8170 2.8963 -0.4831 0
M  V30 98 Ga 3.9420 2.8842 0.7094 0
M  V30 99 Ba 3.0863 2.9226 1.9154 0
M  V30 END ATOM
M  V30 BEGIN BOND
M  V30 1 1 1 2
M  V30 2 1 1 3
M  V30 3 1 1 4
M  V30 4 1 1 5
M  V30 5 1 6 7
M  V30 6 1 6 8
M  V30 7 1 6 9
M  V30 8 1 6 10
M  V30 9 1 11 12
M  V30 10 1 11 13
M  V30 11 1 11 14
M  V30 12 1 11 15
M  V30 13 1 16 17
M  V30 14 1 16 18
M  V30 15 1 16 19
M  V30 16 1 16 20
M  V30 17 1 21 22
M  V30 18 1 21 23
M  V30 19 1 21 24
M  V30 20 1 21 25
M  V30 21 1 26 27
M  V30 22 1 26 28
M  V30 23 1 26 29
M  V30 24 1 26 30
M  V30 25 1 31 32
M  V30 26 1 31 33
M  V30 27 1 31 34
M  V30 28 1 31 35
M  V30 29 1 36 37
M  V30 30 1 36 38
M  V30 31 1 36 39
M  V30 32 1 36 40
M  V30 33 1 41 42
M  V30 34 1 41 43
M  V30 35 1 41 44
M  V30 36 1 41 45
M  V30 37 1 46 47
M  V30 38 1 47 48
M  V30 39 1 49 50
M  V30 40 1 50 51
M  V30 41 1 52 53
M  V30 42 1 53 54
M  V30 43 1 55 56
M  V30 44 1 56 57
M  V30 45 1 58 59
M  V30 46 1 59 60
M  V30 47 1 61 62
M  V30 48 1 62 63
M  V30 49 1 64 65
M  V30 50 1 65 66
M  V30 51 1 67 68
M  V30 52 1 68 69
M  V30 53 1 70 71
M  V30 54 1 71 72
M  V30 55 1 73 74
M  V30 56 1 74 75
M  V30 57 1 76 77
M  V30 58 1 77 78
M  V30 59 1 79 80
M  V30 60 1 80 81
M  V30 61 1 82 83
M  V30 62 1 83 84
M  V30 63 1 85 86
M  V30 64 1 86 87
M  V30 65 1 88 89
M  V30 66 1 89 90
M  V30 67 1 91 92
M  V30 68 1 92 93
M  V30 69 1 94 95
M  V30 70 1 95 96
M  V30 71 1 97 98
M  V30 72 1 98 99
M  V30 73 1 2 97
M  V30 74 1 3 49
M  V30 75 1 4 91
M  V30 76 1 5 61
M  V30 77 1 7 52
M  V30 78 1 8 94
M  V30 79 1 9 88
M  V30 80 1 10 55
M  V30 81 1 12 64
M  V30 82 1 13 73
M  V30 83 1 14 67
M  V30 84 1 15 70
M  V30 85 1 17 82
M  V30 86 1 18 76
M  V30 87 1 19 46
M  V30 88 1 20 57
M  V30 89 1 22 51
M  V30 90 1 23 93
M  V30 91 1 24 78
M  V30 92 1 25 72
M  V30 93 1 27 54
M  V30 94 1 28 84
M  V30 95 1 29 48
M  V30 96 1 30 96
M  V30 97 1 32 85
M  V30 98 1 33 58
M  V30 99 1 34 75
M  V30 100 1 35 63
M  V30 101 1 37 79
M  V30 102 1 38 66
M  V30 103 1 39 69
M  V30 104 1 40 99
M  V30 105 1 42 81
M  V30 106 1 43 90
M  V30 107 1 44 87
M  V30 108 1 45 60
M  V30 END BOND
M  V30 END CTAB
M  END

$$$$
