
     RDKit          3D

  0  0  0  0  0  0  0  0  0  0999 V3000
M  V30 BEGIN CTAB
M  V30 COUNTS 99 108 0 0 0
M  V30 BEGIN ATOM
M  V30 1 Pd 0.4462 4.8330 0.7924 0
M  V30 2 Pb 0.4181 5.3763 -0.0485 0
M  V30 3 Pb 1.1973 4.2818 0.4220 0
M  V30 4 Pb -0.3528 5.3403 1.1061 0
M  V30 5 Pb 0.4109 4.2871 1.6277 0
M  V30 6 Pd 6.3812 -3.7993 1.3393 0
M  V30 7 Pb 5.7962 -4.5805 1.1136 0
M  V30 8 Pb 6.9534 -3.0309 1.6073 0
M  V30 9 Pb 6.5382 -4.1365 2.2618 0
M  V30 10 Pb 6.1563 -3.3114 0.4931 0
M  V30 11 Pd -1.9192 -2.1216 -4.5755 0
M  V30 12 Pb -2.3233 -1.1906 -4.7283 0
M  V30 13 Pb -1.5100 -3.0087 -4.3692 0
M  V30 14 Pb -2.8126 -2.5728 -4.5567 0
M  V30 15 Pb -1.0075 -1.7372 -4.5807 0
M  V30 16 Pd -5.9719 -2.6338 -1.0711 0
M  V30 17 Pb -5.7334 -3.1557 -1.8879 0
M  V30 18 Pb -6.1975 -2.0276 -0.3072 0
M  V30 19 Pb -5.4200 -3.2192 -0.4742 0
M  V30 20 Pb -6.4993 -2.0183 -1.6511 0
M  V30 21 Pd 0.8908 -5.6411 1.2967 0
M  V30 22 Pb 1.8620 -5.8649 1.1767 0
M  V30 23 Pb 0.7436 -5.8286 0.3272 0
M  V30 24 Pb -0.0923 -5.4742 1.3946 0
M  V30 25 Pb 1.0123 -5.3928 2.2594 0
M  V30 26 Pd -6.5006 4.4157 -1.0453 0
M  V30 27 Pb -6.7031 3.7878 -0.2931 0
M  V30 28 Pb -6.1929 4.9406 -1.8372 0
M  V30 29 Pb -5.9903 5.0144 -0.4320 0
M  V30 30 Pb -6.9562 3.7682 -1.6498 0
M  V30 31 Pd -1.8925 3.9832 -3.8782 0
M  V30 32 Pb -1.4475 4.8028 -3.5154 0
M  V30 33 Pb -2.7731 4.4666 -3.9074 0
M  V30 34 Pb -0.9949 3.5676 -3.8917 0
M  V30 35 Pb -2.3087 3.1117 -4.2262 0
M  V30 36 Pd 3.2836 -0.2035 5.9052 0
M  V30 37 Pb 2.7339 -1.0362 5.9682 0
M  V30 38 Pb 3.8408 0.6068 5.7095 0
M  V30 39 Pb 4.0692 -0.7927 6.0816 0
M  V30 40 Pb 2.4862 0.3523 5.6863 0
M  V30 41 Pd 5.2129 1.1808 1.3192 0
M  V30 42 Pb 5.9986 0.7269 1.7276 0
M  V30 43 Pb 4.4926 1.6842 0.8345 0
M  V30 44 Pb 5.1425 1.7394 2.1497 0
M  V30 45 Pb 5.2808 0.5457 0.5401 0
M  V30 46 Ag 1.0514 -5.1593 2.9730 0
M  V30 47 Fe 1.6898 -3.4670 4.5143 0
M  V30 48 Ag 2.3845 -1.6996 5.9427 0
M  V30 49 Ag -5.0056 -3.6326 -0.0024 0
M  V30 50 Fe -2.9094 -4.4979 0.7102 0
M  V30 51 Ag -0.8361 -5.3860 1.4608 0
M  V30 52 Ag -6.3768 -1.4905 0.1861 0
M  V30 53 Fe -6.6374 0.8646 0.3635 0
M  V30 54 Ag -6.8015 3.2293 0.1987 0
M  V30 55 Ag -0.3727 -1.3657 -4.5487 0
M  V30 56 Fe 0.1266 0.9097 -4.2464 0
M  V30 57 Ag -0.3669 3.1853 -3.9355 0
M  V30 58 Ag -6.8648 -1.4980 -2.0417 0
M  V30 59 Fe -7.1788 0.8454 -2.1954 0
M  V30 60 Ag -7.2451 3.2092 -2.0495 0
M  V30 61 Ag 6.6113 -4.1801 3.0008 0
M  V30 62 Fe 5.7423 -2.8953 4.7904 0
M  V30 63 Ag 4.5885 -1.3269 6.1396 0
M  V30 64 Ag -0.9965 5.6796 1.2735 0
M  V30 65 Fe -3.3082 5.6687 0.7472 0
M  V30 66 Ag -5.5504 5.4157 0.0192 0
M  V30 67 Ag 0.3332 3.8895 2.2573 0
M  V30 68 Fe 1.1117 2.3422 3.8781 0
M  V30 69 Ag 1.9189 0.7923 5.4823 0
M  V30 70 Ag -1.1965 -3.6554 -4.1608 0
M  V30 71 Fe -0.2732 -4.8715 -2.3446 0
M  V30 72 Ag 0.6080 -5.9135 -0.4036 0
M  V30 73 Ba 5.3791 -5.1893 0.9706 0
M  V30 74 Ga 3.9561 -5.5880 1.0201 0
M  V30 75 Ba 2.5665 -6.0925 1.0348 0
M  V30 76 Ba 0.3444 5.7932 -0.6697 0
M  V30 77 Ga -0.3551 5.6043 -1.9569 0
M  V30 78 Ba -1.0640 5.3839 -3.2339 0
M  V30 79 Ba 5.9820 -2.8543 -0.0800 0
M  V30 80 Ga 5.6534 -1.4076 -0.0844 0
M  V30 81 Ba 5.3329 0.0397 -0.0213 0
M  V30 82 Ba 7.3491 -2.4510 1.8565 0
M  V30 83 Ga 7.0230 -1.0230 1.9401 0
M  V30 84 Ba 6.6100 0.3844 1.9806 0
M  V30 85 Ba -2.6616 -0.5051 -4.8599 0
M  V30 86 Ga -2.5661 0.9790 -4.6300 0
M  V30 87 Ba -2.6517 2.4767 -4.5105 0
M  V30 88 Ba -3.4366 -2.9903 -4.5264 0
M  V30 89 Ga -4.5067 -3.2348 -3.5404 0
M  V30 90 Ba -5.5734 -3.4695 -2.5485 0
M  V30 91 Ba 4.2003 1.2312 5.4894 0
M  V30 92 Ga 4.6767 1.6893 4.1644 0
M  V30 93 Ba 5.1334 2.0938 2.8151 0
M  V30 94 Ba 1.7174 3.8664 0.0713 0
M  V30 95 Ga 2.8603 2.9633 0.3253 0
M  V30 96 Ba 4.0168 2.0435 0.3736 0
M  V30 97 Ba -5.9185 5.2728 -2.4501 0
M  V30 98 Ga -4.6593 5.0756 -3.1989 0
M  V30 99 Ba -3.4027 4.8810 -3.9528 0
M  V30 END ATOM
M  V30 BEGIN BOND
M  V30 1 1 1 2
M  V30 2 1 1 3
M  V30 3 1 1 4
M  V30 4 1 1 5
M  V30 5 1 6 7
M  V30 6 1 6 8
M  V30 7 1 6 9
M  V30 8 1 6 10
M  V30 9 1 11 12
M  V30 10 1 11 13
M  V30 11 1 11 14
M  V30 12 1 11 15
M  V30 13 1 16 17
M  V30 14 1 16 18
M  V30 15 1 16 19
M  V30 16 1 16 20
M  V30 17 1 21 22
M  V30 18 1 21 23
M  V30 19 1 21 24
M  V30 20 1 21 25
M  V30 21 1 26 27
M  V30 22 1 26 28
M  V30 23 1 26 29
M  V30 24 1 26 30
M  V30 25 1 31 32
M  V30 26 1 31 33
M  V30 27 1 31 34
M  V30 28 1 31 35
M  V30 29 1 36 37
M  V30 30 1 36 38
M  V30 31 1 36 39
M  V30 32 1 36 40
M  V30 33 1 41 42
M  V30 34 1 41 43
M  V30 35 1 41 44
M  V30 36 1 41 45
M  V30 37 1 46 47
M  V30 38 1 47 48
M  V30 39 1 49 50
M  V30 40 1 50 51
M  V30 41 1 52 53
M  V30 42 1 53 54
M  V30 43 1 55 56
M  V30 44 1 56 57
M  V30 45 1 58 59
M  V30 46 1 59 60
M  V30 47 1 61 62
M  V30 48 1 62 63
M  V30 49 1 64 65
M  V30 50 1 65 66
M  V30 51 1 67 68
M  V30 52 1 68 69
M  V30 53 1 70 71
M  V30 54 1 71 72
M  V30 55 1 73 74
M  V30 56 1 74 75
M  V30 57 1 76 77
M  V30 58 1 77 78
M  V30 59 1 79 80
M  V30 60 1 80 81
M  V30 61 1 82 83
M  V30 62 1 83 84
M  V30 63 1 85 86
M  V30 64 1 86 87
M  V30 65 1 88 89
M  V30 66 1 89 90
M  V30 67 1 91 92
M  V30 68 1 92 93
M  V30 69 1 94 95
M  V30 70 1 95 96
M  V30 71 1 97 98
M  V30 72 1 98 99
M  V30 73 1 2 76
M  V30 74 1 3 94
M  V30 75 1 4 64
M  V30 76 1 5 67
M  V30 77 1 7 73
M  V30 78 1 8 82
M  V30 79 1 9 61
M  V30 80 1 10 79
M  V30 81 1 12 85
M  V30 82 1 13 70
M  V30 83 1 14 88
M  V30 84 1 15 55
M  V30 85 1 17 90
M  V30 86 1 18 52
M  V30 87 1 19 49
M  V30 88 1 20 58
M  V30 89 1 22 75
M  V30 90 1 23 72
M  V30 91 1 24 51
M  V30 92 1 25 46
M  V30 93 1 27 54
M  V30 94 1 28 97
M  V30 95 1 29 66
M  V30 96 1 30 60
M  V30 97 1 32 78
M  V30 98 1 33 99
M  V30 99 1 34 57
M  V30 100 1 35 87
M  V30 101 1 37 48
M  V30 102 1 38 91
M  V30 103 1 39 63
M  V30 104 1 40 69
M  V30 105 1 42 84
M  V30 106 1 43 96
M  V30 107 1 44 93
M  V30 108 1 45 81
M  V30 END BOND
M  V30 END CTAB
M  END

$$$$
