
     RDKit          3D

  0  0  0  0  0  0  0  0  0  0999 V3000
M  V30 BEGIN CTAB
M  V30 COUNTS 99 108 0 0 0
M  V30 BEGIN ATOM
M  V30 1 Pd -3.0625 0.9825 -2.5124 0
M  V30 2 Pb -2.9689 1.6119 -3.2865 0
M  V30 3 Pb -2.0671 0.8802 -2.5142 0
M  V30 4 Pb -4.0573 1.0815 -2.4861 0
M  V30 5 Pb -3.1614 0.3602 -1.7351 0
M  V30 6 Pd 4.0604 -5.3937 -3.2010 0
M  V30 7 Pb 4.4400 -5.2266 -2.2899 0
M  V30 8 Pb 3.6415 -5.5283 -4.0974 0
M  V30 9 Pb 3.5783 -6.1988 -2.8572 0
M  V30 10 Pb 4.4369 -4.5296 -3.5393 0
M  V30 11 Pd 4.1664 4.7442 1.9279 0
M  V30 12 Pb 3.6034 5.5479 1.7448 0
M  V30 13 Pb 4.6659 3.8997 2.1195 0
M  V30 14 Pb 4.0272 4.8263 2.9126 0
M  V30 15 Pb 4.1976 4.6101 0.9352 0
M  V30 16 Pd -0.5950 1.4278 6.0366 0
M  V30 17 Pb 0.1721 2.0223 6.2715 0
M  V30 18 Pb -1.3720 0.8824 5.7085 0
M  V30 19 Pb -0.0414 0.6253 6.2698 0
M  V30 20 Pb -1.1435 2.2315 5.8209 0
M  V30 21 Pd 3.1821 -2.5517 4.0618 0
M  V30 22 Pb 3.6706 -3.0068 3.3141 0
M  V30 23 Pb 3.7960 -1.7699 3.9408 0
M  V30 24 Pb 2.7162 -2.1340 4.8465 0
M  V30 25 Pb 2.5593 -3.3292 4.1430 0
M  V30 26 Pd -5.8238 2.9956 1.2792 0
M  V30 27 Pb -5.6487 2.1764 1.8340 0
M  V30 28 Pb -5.8751 3.8165 0.7138 0
M  V30 29 Pb -6.1711 2.4739 0.4998 0
M  V30 30 Pb -5.4157 3.5193 2.0214 0
M  V30 31 Pd -0.9049 5.8417 -3.0010 0
M  V30 32 Pb -1.2734 5.2078 -3.6829 0
M  V30 33 Pb -1.8376 6.1353 -2.7994 0
M  V30 34 Pb 0.0303 5.4976 -3.1084 0
M  V30 35 Pb -0.5432 6.4324 -2.2818 0
M  V30 36 Pd -2.1299 -5.9445 0.2484 0
M  V30 37 Pb -1.7461 -6.0783 1.1596 0
M  V30 38 Pb -2.4259 -5.7146 -0.6775 0
M  V30 39 Pb -1.5435 -6.6753 -0.0976 0
M  V30 40 Pb -2.6033 -5.1216 0.5537 0
M  V30 41 Pd 1.0521 -2.1103 -4.9023 0
M  V30 42 Pb 1.2508 -2.9172 -5.4554 0
M  V30 43 Pb 0.8837 -1.3292 -4.2980 0
M  V30 44 Pb 0.1098 -2.4278 -4.8075 0
M  V30 45 Pb 2.0301 -1.8977 -4.9119 0
M  V30 46 Ag 4.7042 -5.0945 -1.5994 0
M  V30 47 Fe 4.3667 -4.2155 0.5832 0
M  V30 48 Ag 4.0710 -3.3494 2.7770 0
M  V30 49 Ag 2.0690 -3.8949 4.1802 0
M  V30 50 Fe 0.3252 -5.0769 3.0872 0
M  V30 51 Ag -1.3904 -6.1131 1.8164 0
M  V30 52 Ag -1.9856 0.5687 5.3998 0
M  V30 53 Fe -3.7585 0.9729 3.8616 0
M  V30 54 Ag -5.4255 1.6135 2.2855 0
M  V30 55 Ag 4.1109 4.5417 0.1908 0
M  V30 56 Fe 2.5238 4.8510 -1.5533 0
M  V30 57 Ag 0.7425 5.2564 -3.0763 0
M  V30 58 Ag 3.1397 6.0970 1.5372 0
M  V30 59 Fe 1.4376 6.6077 -0.0347 0
M  V30 60 Ag -0.2172 6.8084 -1.7229 0
M  V30 61 Ag -1.5920 2.7977 5.6331 0
M  V30 62 Fe -3.3306 3.4637 4.1671 0
M  V30 63 Ag -5.0476 3.8482 2.5800 0
M  V30 64 Ag 3.8624 4.7920 3.6410 0
M  V30 65 Fe 2.3723 3.7219 5.1451 0
M  V30 66 Ag 0.7428 2.4983 6.3595 0
M  V30 67 Ag 3.1376 -6.7441 -2.5930 0
M  V30 68 Fe 1.0725 -7.1167 -1.4836 0
M  V30 69 Ag -1.0232 -7.1400 -0.3694 0
M  V30 70 Ag -3.2876 -0.1038 -1.1585 0
M  V30 71 Fe -3.1269 -2.2544 -0.1654 0
M  V30 72 Ag -2.8910 -4.4492 0.7083 0
M  V30 73 Ag -2.5892 -5.4443 -1.3566 0
M  V30 74 Fe -1.7048 -4.1100 -3.1092 0
M  V30 75 Ag -0.5512 -2.7566 -4.6813 0
M  V30 76 Ag -5.8179 4.4079 0.2597 0
M  V30 77 Fe -4.2915 5.4760 -1.2088 0
M  V30 78 Ag -2.5403 6.2839 -2.5902 0
M  V30 79 Ag 4.9909 3.2575 2.3304 0
M  V30 80 Fe 4.6636 1.0203 3.0604 0
M  V30 81 Ag 4.2700 -1.2072 3.7875 0
M  V30 82 Ba -2.8597 2.0780 -3.8667 0
M  V30 83 Ga -2.2259 3.4030 -4.0280 0
M  V30 84 Ba -1.5883 4.7286 -4.1686 0
M  V30 85 Ba 0.3934 0.0524 6.4908 0
M  V30 86 Ga 1.3730 -0.8975 5.9207 0
M  V30 87 Ba 2.3665 -1.8959 5.4702 0
M  V30 88 Ba 4.6333 -3.8583 -3.8143 0
M  V30 89 Ga 3.7680 -2.7930 -4.3611 0
M  V30 90 Ba 2.7770 -1.8259 -4.8763 0
M  V30 91 Ba 3.2957 -5.5674 -4.7598 0
M  V30 92 Ga 2.3589 -4.6044 -5.3604 0
M  V30 93 Ba 1.4438 -3.5447 -5.8137 0
M  V30 94 Ba -4.8016 1.1190 -2.3982 0
M  V30 95 Ga -5.6335 1.6142 -1.2845 0
M  V30 96 Ba -6.3930 2.1321 -0.1302 0
M  V30 97 Ba -1.3177 0.8358 -2.5207 0
M  V30 98 Ga -0.2841 0.0197 -3.1886 0
M  V30 99 Ba 0.8031 -0.7548 -3.8198 0
M  V30 END ATOM
M  V30 BEGIN BOND
M  V30 1 1 1 2
M  V30 2 1 1 3
M  V30 3 1 1 4
M  V30 4 1 1 5
M  V30 5 1 6 7
M  V30 6 1 6 8
M  V30 7 1 6 9
M  V30 8 1 6 10
M  V30 9 1 11 12
M  V30 10 1 11 13
M  V30 11 1 11 14
M  V30 12 1 11 15
M  V30 13 1 16 17
M  V30 14 1 16 18
M  V30 15 1 16 19
M  V30 16 1 16 20
M  V30 17 1 21 22
M  V30 18 1 21 23
M  V30 19 1 21 24
M  V30 20 1 21 25
M  V30 21 1 26 27
M  V30 22 1 26 28
M  V30 23 1 26 29
M  V30 24 1 26 30
M  V30 25 1 31 32
M  V30 26 1 31 33
M  V30 27 1 31 34
M  V30 28 1 31 35
M  V30 29 1 36 37
M  V30 30 1 36 38
M  V30 31 1 36 39
M  V30 32 1 36 40
M  V30 33 1 41 42
M  V30 34 1 41 43
M  V30 35 1 41 44
M  V30 36 1 41 45
M  V30 37 1 46 47
M  V30 38 1 47 48
M  V30 39 1 49 50
M  V30 40 1 50 51
M  V30 41 1 52 53
M  V30 42 1 53 54
M  V30 43 1 55 56
M  V30 44 1 56 57
M  V30 45 1 58 59
M  V30 46 1 59 60
M  V30 47 1 61 62
M  V30 48 1 62 63
M  V30 49 1 64 65
M  V30 50 1 65 66
M  V30 51 1 67 68
M  V30 52 1 68 69
M  V30 53 1 70 71
M  V30 54 1 71 72
M  V30 55 1 73 74
M  V30 56 1 74 75
M  V30 57 1 76 77
M  V30 58 1 77 78
M  V30 59 1 79 80
M  V30 60 1 80 81
M  V30 61 1 82 83
M  V30 62 1 83 84
M  V30 63 1 85 86
M  V30 64 1 86 87
M  V30 65 1 88 89
M  V30 66 1 89 90
M  V30 67 1 91 92
M  V30 68 1 92 93
M  V30 69 1 94 95
M  V30 70 1 95 96
M  V30 71 1 97 98
M  V30 72 1 98 99
M  V30 73 1 2 82
M  V30 74 1 3 97
M  V30 75 1 4 94
M  V30 76 1 5 70
M  V30 77 1 7 46
M  V30 78 1 8 91
M  V30 79 1 9 67
M  V30 80 1 10 88
M  V30 81 1 12 58
M  V30 82 1 13 79
M  V30 83 1 14 64
M  V30 84 1 15 55
M  V30 85 1 17 66
M  V30 86 1 18 52
M  V30 87 1 19 85
M  V30 88 1 20 61
M  V30 89 1 22 48
M  V30 90 1 23 81
M  V30 91 1 24 87
M  V30 92 1 25 49
M  V30 93 1 27 54
M  V30 94 1 28 76
M  V30 95 1 29 96
M  V30 96 1 30 63
M  V30 97 1 32 84
M  V30 98 1 33 78
M  V30 99 1 34 57
M  V30 100 1 35 60
M  V30 101 1 37 51
M  V30 102 1 38 73
M  V30 103 1 39 69
M  V30 104 1 40 72
M  V30 105 1 42 93
M  V30 106 1 43 99
M  V30 107 1 44 75
M  V30 108 1 45 90
M  V30 END BOND
M  V30 END CTAB
M  END

$$$$
