
     RDKit          3D

  0  0  0  0  0  0  0  0  0  0999 V3000
M  V30 BEGIN CTAB
M  V30 COUNTS 99 108 0 0 0
M  V30 BEGIN ATOM
M  V30 1 Pd 3.2298 4.1642 5.2727 0
M  V30 2 Pb 4.0254 4.3028 4.6806 0
M  V30 3 Pb 3.6832 3.3967 5.7221 0
M  V30 4 Pb 2.7385 4.9095 4.7997 0
M  V30 5 Pb 2.3998 3.9850 5.7955 0
M  V30 6 Pd -3.4940 -1.7692 -8.1990 0
M  V30 7 Pb -2.9192 -0.9564 -8.1322 0
M  V30 8 Pb -4.0756 -2.5633 -8.0523 0
M  V30 9 Pb -2.7081 -2.3799 -8.0868 0
M  V30 10 Pb -4.2826 -1.1651 -8.0945 0
M  V30 11 Pd -4.0771 1.9638 -2.5940 0
M  V30 12 Pb -3.4543 2.1566 -3.3530 0
M  V30 13 Pb -3.3072 1.9429 -1.9608 0
M  V30 14 Pb -4.8015 1.9041 -3.2809 0
M  V30 15 Pb -4.6944 1.6796 -1.8574 0
M  V30 16 Pd -0.4762 4.7161 1.2257 0
M  V30 17 Pb -0.7756 3.9393 0.6748 0
M  V30 18 Pb -0.0514 5.3794 1.8518 0
M  V30 19 Pb -1.0806 4.4333 1.9667 0
M  V30 20 Pb 0.1821 5.0045 0.5308 0
M  V30 21 Pd 4.3534 2.9101 0.0249 0
M  V30 22 Pb 3.9411 2.4888 -0.7732 0
M  V30 23 Pb 3.8735 3.7506 -0.2268 0
M  V30 24 Pb 4.7892 3.3543 0.8135 0
M  V30 25 Pb 4.8039 2.0241 0.2516 0
M  V30 26 Pd -3.6671 -1.8558 1.1990 0
M  V30 27 Pb -4.3844 -1.2112 0.9204 0
M  V30 28 Pb -3.1719 -1.1308 1.6883 0
M  V30 29 Pb -4.1417 -2.6385 0.7900 0
M  V30 30 Pb -2.9368 -2.4737 1.4710 0
M  V30 31 Pd -2.5344 -5.6515 -2.5595 0
M  V30 32 Pb -3.2674 -5.6218 -3.2371 0
M  V30 33 Pb -1.9023 -5.6126 -3.3364 0
M  V30 34 Pb -1.7816 -5.7353 -1.9013 0
M  V30 35 Pb -3.2148 -5.5670 -1.8296 0
M  V30 36 Pd 2.6548 -1.2616 4.9242 0
M  V30 37 Pb 1.8686 -0.6487 4.8085 0
M  V30 38 Pb 3.1924 -0.5864 5.4318 0
M  V30 39 Pb 2.1278 -1.9518 4.4378 0
M  V30 40 Pb 3.4256 -1.8932 4.9195 0
M  V30 41 Pd 4.0091 -3.0745 0.6077 0
M  V30 42 Pb 4.5736 -2.2260 0.6263 0
M  V30 43 Pb 4.3855 -3.3358 1.4984 0
M  V30 44 Pb 3.6452 -2.8155 -0.2783 0
M  V30 45 Pb 3.3829 -3.8553 0.6008 0
M  V30 46 Ag -2.1788 -2.8650 -7.8623 0
M  V30 47 Fe -1.6782 -4.2537 -5.9974 0
M  V30 48 Ag -1.5237 -5.4991 -3.9769 0
M  V30 49 Ag -2.5696 -0.3304 -7.9202 0
M  V30 50 Fe -2.6290 1.0991 -6.0268 0
M  V30 51 Ag -3.0313 2.2130 -3.9698 0
M  V30 52 Ag -4.8198 -0.7003 -7.8574 0
M  V30 53 Fe -5.2505 0.6357 -5.9429 0
M  V30 54 Ag -5.2461 1.8048 -3.8765 0
M  V30 55 Ag -1.2100 -5.8343 -1.4205 0
M  V30 56 Fe 0.8276 -5.1320 -0.4156 0
M  V30 57 Ag 2.8633 -4.3971 0.5692 0
M  V30 58 Ag -2.3574 -2.8836 1.6954 0
M  V30 59 Fe -0.3022 -2.7880 2.8677 0
M  V30 60 Ag 1.7065 -2.4477 4.0750 0
M  V30 61 Ag 1.6981 3.8619 6.0055 0
M  V30 62 Fe -0.2461 3.9189 4.6724 0
M  V30 63 Ag -1.3684 4.2388 2.6234 0
M  V30 64 Ag -2.7660 -0.6500 2.1067 0
M  V30 65 Fe -0.7829 -0.3532 3.3913 0
M  V30 66 Ag 1.2521 -0.2547 4.6241 0
M  V30 67 Ag -4.4462 -3.1462 -7.7739 0
M  V30 68 Fe -4.2808 -4.4994 -5.8352 0
M  V30 69 Ag -3.7599 -5.5979 -3.8000 0
M  V30 70 Ag 3.6537 2.0766 -1.3150 0
M  V30 71 Fe 3.3201 -0.2400 -1.5572 0
M  V30 72 Ag 3.3993 -2.4970 -0.8976 0
M  V30 73 Ba 0.7176 5.2488 0.0661 0
M  V30 74 Ga 2.0982 4.8082 -0.2105 0
M  V30 75 Ba 3.4742 4.3400 -0.4635 0
M  V30 76 Ba 2.3538 5.4732 4.4646 0
M  V30 77 Ga 1.3341 5.6372 3.3952 0
M  V30 78 Ba 0.3150 5.8365 2.3311 0
M  V30 79 Ba 4.0016 2.8052 6.0517 0
M  V30 80 Ga 3.8069 1.3479 5.9340 0
M  V30 81 Ba 3.6211 -0.1111 5.8255 0
M  V30 82 Ba -2.7075 1.8650 -1.5223 0
M  V30 83 Ga -1.8628 2.6503 -0.6068 0
M  V30 84 Ba -0.9249 3.2920 0.3295 0
M  V30 85 Ba 4.6059 4.3930 4.2119 0
M  V30 86 Ga 4.8609 4.0366 2.7991 0
M  V30 87 Ba 5.1423 3.6920 1.3885 0
M  V30 88 Ba 5.1798 1.3722 0.4099 0
M  V30 89 Ga 5.0128 -0.1122 0.5171 0
M  V30 90 Ba 5.0214 -1.6023 0.6668 0
M  V30 91 Ba -5.1443 1.4279 -1.3094 0
M  V30 92 Ga -5.0292 0.3594 -0.2926 0
M  V30 93 Ba -4.9117 -0.7099 0.7231 0
M  V30 94 Ba -4.4635 -3.2751 0.5486 0
M  V30 95 Ga -4.1100 -4.3578 -0.3946 0
M  V30 96 Ba -3.7684 -5.4466 -1.3350 0
M  V30 97 Ba 3.9703 -2.3918 4.8093 0
M  V30 98 Ga 4.3740 -2.9855 3.5226 0
M  V30 99 Ba 4.6738 -3.4974 2.1734 0
M  V30 END ATOM
M  V30 BEGIN BOND
M  V30 1 1 1 2
M  V30 2 1 1 3
M  V30 3 1 1 4
M  V30 4 1 1 5
M  V30 5 1 6 7
M  V30 6 1 6 8
M  V30 7 1 6 9
M  V30 8 1 6 10
M  V30 9 1 11 12
M  V30 10 1 11 13
M  V30 11 1 11 14
M  V30 12 1 11 15
M  V30 13 1 16 17
M  V30 14 1 16 18
M  V30 15 1 16 19
M  V30 16 1 16 20
M  V30 17 1 21 22
M  V30 18 1 21 23
M  V30 19 1 21 24
M  V30 20 1 21 25
M  V30 21 1 26 27
M  V30 22 1 26 28
M  V30 23 1 26 29
M  V30 24 1 26 30
M  V30 25 1 31 32
M  V30 26 1 31 33
M  V30 27 1 31 34
M  V30 28 1 31 35
M  V30 29 1 36 37
M  V30 30 1 36 38
M  V30 31 1 36 39
M  V30 32 1 36 40
M  V30 33 1 41 42
M  V30 34 1 41 43
M  V30 35 1 41 44
M  V30 36 1 41 45
M  V30 37 1 46 47
M  V30 38 1 47 48
M  V30 39 1 49 50
M  V30 40 1 50 51
M  V30 41 1 52 53
M  V30 42 1 53 54
M  V30 43 1 55 56
M  V30 44 1 56 57
M  V30 45 1 58 59
M  V30 46 1 59 60
M  V30 47 1 61 62
M  V30 48 1 62 63
M  V30 49 1 64 65
M  V30 50 1 65 66
M  V30 51 1 67 68
M  V30 52 1 68 69
M  V30 53 1 70 71
M  V30 54 1 71 72
M  V30 55 1 73 74
M  V30 56 1 74 75
M  V30 57 1 76 77
M  V30 58 1 77 78
M  V30 59 1 79 80
M  V30 60 1 80 81
M  V30 61 1 82 83
M  V30 62 1 83 84
M  V30 63 1 85 86
M  V30 64 1 86 87
M  V30 65 1 88 89
M  V30 66 1 89 90
M  V30 67 1 91 92
M  V30 68 1 92 93
M  V30 69 1 94 95
M  V30 70 1 95 96
M  V30 71 1 97 98
M  V30 72 1 98 99
M  V30 73 1 2 85
M  V30 74 1 3 79
M  V30 75 1 4 76
M  V30 76 1 5 61
M  V30 77 1 7 49
M  V30 78 1 8 67
M  V30 79 1 9 46
M  V30 80 1 10 52
M  V30 81 1 12 51
M  V30 82 1 13 82
M  V30 83 1 14 54
M  V30 84 1 15 91
M  V30 85 1 17 84
M  V30 86 1 18 78
M  V30 87 1 19 63
M  V30 88 1 20 73
M  V30 89 1 22 70
M  V30 90 1 23 75
M  V30 91 1 24 87
M  V30 92 1 25 88
M  V30 93 1 27 93
M  V30 94 1 28 64
M  V30 95 1 29 94
M  V30 96 1 30 58
M  V30 97 1 32 69
M  V30 98 1 33 48
M  V30 99 1 34 55
M  V30 100 1 35 96
M  V30 101 1 37 66
M  V30 102 1 38 81
M  V30 103 1 39 60
M  V30 104 1 40 97
M  V30 105 1 42 90
M  V30 106 1 43 99
M  V30 107 1 44 72
M  V30 108 1 45 57
M  V30 END BOND
M  V30 END CTAB
M  END

$$$$
