
     RDKit          3D

  0  0  0  0  0  0  0  0  0  0999 V3000
M  V30 BEGIN CTAB
M  V30 COUNTS 99 108 0 0 0
M  V30 BEGIN ATOM
M  V30 1 Pd 2.1434 -2.0124 -2.0575 0
M  V30 2 Pb 3.0274 -1.7283 -2.4293 0
M  V30 3 Pb 1.9147 -1.0429 -2.0265 0
M  V30 4 Pb 2.3786 -2.9851 -2.0906 0
M  V30 5 Pb 1.2560 -2.2653 -1.6713 0
M  V30 6 Pd -6.1626 2.7999 -4.2893 0
M  V30 7 Pb -6.2858 2.9858 -3.3138 0
M  V30 8 Pb -5.9589 2.6197 -5.2473 0
M  V30 9 Pb -6.5122 1.8642 -4.2354 0
M  V30 10 Pb -5.6121 3.6302 -4.3666 0
M  V30 11 Pd 3.1019 3.7805 3.4592 0
M  V30 12 Pb 4.0282 3.4164 3.5464 0
M  V30 13 Pb 2.1608 4.1202 3.4028 0
M  V30 14 Pb 2.8907 3.5299 4.4025 0
M  V30 15 Pb 3.2967 3.9763 2.4943 0
M  V30 16 Pd -0.5531 -1.6496 6.3108 0
M  V30 17 Pb -0.1908 -0.8358 6.7598 0
M  V30 18 Pb 0.3480 -2.0687 6.3677 0
M  V30 19 Pb -1.4597 -1.2269 6.2704 0
M  V30 20 Pb -0.8242 -2.4420 5.7573 0
M  V30 21 Pd -4.2622 1.7681 3.2802 0
M  V30 22 Pb -4.6359 2.2708 2.4991 0
M  V30 23 Pb -3.6405 2.5275 3.4806 0
M  V30 24 Pb -4.0037 1.2662 4.1094 0
M  V30 25 Pb -4.7972 0.9883 2.9679 0
M  V30 26 Pd 3.4168 -5.4342 1.7309 0
M  V30 27 Pb 3.5879 -5.2010 2.6826 0
M  V30 28 Pb 4.3529 -5.1728 1.5056 0
M  V30 29 Pb 3.2382 -5.6018 0.7615 0
M  V30 30 Pb 2.4533 -5.5542 1.9879 0
M  V30 31 Pd 5.9863 1.0261 0.0605 0
M  V30 32 Pb 5.7901 0.6943 -0.8646 0
M  V30 33 Pb 6.4222 0.1436 0.2311 0
M  V30 34 Pb 5.4925 1.8877 -0.0847 0
M  V30 35 Pb 6.1941 1.3310 0.9891 0
M  V30 36 Pd -3.5439 -1.7599 -2.9597 0
M  V30 37 Pb -4.1454 -1.7640 -2.1622 0
M  V30 38 Pb -2.9020 -1.7920 -3.7357 0
M  V30 39 Pb -4.3460 -1.4685 -3.4942 0
M  V30 40 Pb -2.8034 -2.0768 -2.3640 0
M  V30 41 Pd -0.0863 1.4954 -5.5808 0
M  V30 42 Pb -0.6594 1.4918 -6.3946 0
M  V30 43 Pb 0.3938 1.5179 -4.7057 0
M  V30 44 Pb -0.1290 0.4957 -5.5844 0
M  V30 45 Pb -0.2553 2.4776 -5.5074 0
M  V30 46 Ag -6.3164 3.1803 -2.5891 0
M  V30 47 Fe -5.6405 2.8748 -0.3312 0
M  V30 48 Ag -5.0008 2.6223 1.9437 0
M  V30 49 Ag -5.1308 0.4221 2.6155 0
M  V30 50 Fe -4.9697 -0.7652 0.5692 0
M  V30 51 Ag -4.5697 -1.7619 -1.5453 0
M  V30 52 Ag 1.0070 -2.4162 6.3607 0
M  V30 53 Fe 2.4508 -3.7106 5.0019 0
M  V30 54 Ag 3.6418 -4.9673 3.3871 0
M  V30 55 Ag -5.0583 4.1256 -4.4591 0
M  V30 56 Fe -2.7405 3.9590 -4.9394 0
M  V30 57 Ag -0.5593 3.1561 -5.4178 0
M  V30 58 Ag -5.6752 2.4714 -5.9189 0
M  V30 59 Fe -3.5256 1.9621 -6.7611 0
M  V30 60 Ag -1.2068 1.5220 -6.8965 0
M  V30 61 Ag -0.9036 -3.0355 5.2978 0
M  V30 62 Fe 0.3035 -4.3800 3.7464 0
M  V30 63 Ag 1.7468 -5.5470 2.2542 0
M  V30 64 Ag 2.6628 3.3027 5.0782 0
M  V30 65 Fe 1.4267 1.6136 6.1946 0
M  V30 66 Ag 0.1494 -0.2155 7.0007 0
M  V30 67 Ag 5.0178 -4.8665 1.3537 0
M  V30 68 Fe 6.0041 -2.7712 0.8384 0
M  V30 69 Ag 6.6780 -0.5516 0.3400 0
M  V30 70 Ag 1.4433 4.3430 3.4462 0
M  V30 71 Fe -0.8601 3.7548 3.4989 0
M  V30 72 Ag -3.1422 3.0877 3.5405 0
M  V30 73 Ba 3.6652 -1.4389 -2.6991 0
M  V30 74 Ga 4.6789 -0.5272 -2.1299 0
M  V30 75 Ba 5.6809 0.3857 -1.5422 0
M  V30 76 Ba -2.1327 -0.8944 6.2935 0
M  V30 77 Ga -2.9728 -0.0025 5.4673 0
M  V30 78 Ba -3.9140 0.8842 4.7524 0
M  V30 79 Ba 3.4706 4.0852 1.7688 0
M  V30 80 Ga 4.2841 3.3228 0.7943 0
M  V30 81 Ba 5.1058 2.5316 -0.1500 0
M  V30 82 Ba 4.7191 3.1311 3.5930 0
M  V30 83 Ga 5.5466 2.3504 2.6565 0
M  V30 84 Ba 6.3342 1.5719 1.6844 0
M  V30 85 Ba -6.6646 1.1292 -4.2832 0
M  V30 86 Ga -5.8408 -0.0776 -4.0312 0
M  V30 87 Ba -5.0213 -1.2893 -3.7881 0
M  V30 88 Ba 2.5180 -3.7234 -2.0973 0
M  V30 89 Ga 2.8270 -4.7190 -1.0522 0
M  V30 90 Ba 3.1353 -5.6823 0.0229 0
M  V30 91 Ba 0.6055 -2.4742 -1.3614 0
M  V30 92 Ga -0.8367 -2.3778 -1.6619 0
M  V30 93 Ba -2.2974 -2.3346 -1.8713 0
M  V30 94 Ba -2.3596 -1.8753 -4.2587 0
M  V30 95 Ga -1.3200 -1.0548 -4.9251 0
M  V30 96 Ba -0.2807 -0.2407 -5.5996 0
M  V30 97 Ba 1.7907 -0.3066 -2.0319 0
M  V30 98 Ga 1.2435 0.6281 -3.0287 0
M  V30 99 Ba 0.6982 1.5663 -4.0232 0
M  V30 END ATOM
M  V30 BEGIN BOND
M  V30 1 1 1 2
M  V30 2 1 1 3
M  V30 3 1 1 4
M  V30 4 1 1 5
M  V30 5 1 6 7
M  V30 6 1 6 8
M  V30 7 1 6 9
M  V30 8 1 6 10
M  V30 9 1 11 12
M  V30 10 1 11 13
M  V30 11 1 11 14
M  V30 12 1 11 15
M  V30 13 1 16 17
M  V30 14 1 16 18
M  V30 15 1 16 19
M  V30 16 1 16 20
M  V30 17 1 21 22
M  V30 18 1 21 23
M  V30 19 1 21 24
M  V30 20 1 21 25
M  V30 21 1 26 27
M  V30 22 1 26 28
M  V30 23 1 26 29
M  V30 24 1 26 30
M  V30 25 1 31 32
M  V30 26 1 31 33
M  V30 27 1 31 34
M  V30 28 1 31 35
M  V30 29 1 36 37
M  V30 30 1 36 38
M  V30 31 1 36 39
M  V30 32 1 36 40
M  V30 33 1 41 42
M  V30 34 1 41 43
M  V30 35 1 41 44
M  V30 36 1 41 45
M  V30 37 1 46 47
M  V30 38 1 47 48
M  V30 39 1 49 50
M  V30 40 1 50 51
M  V30 41 1 52 53
M  V30 42 1 53 54
M  V30 43 1 55 56
M  V30 44 1 56 57
M  V30 45 1 58 59
M  V30 46 1 59 60
M  V30 47 1 61 62
M  V30 48 1 62 63
M  V30 49 1 64 65
M  V30 50 1 65 66
M  V30 51 1 67 68
M  V30 52 1 68 69
M  V30 53 1 70 71
M  V30 54 1 71 72
M  V30 55 1 73 74
M  V30 56 1 74 75
M  V30 57 1 76 77
M  V30 58 1 77 78
M  V30 59 1 79 80
M  V30 60 1 80 81
M  V30 61 1 82 83
M  V30 62 1 83 84
M  V30 63 1 85 86
M  V30 64 1 86 87
M  V30 65 1 88 89
M  V30 66 1 89 90
M  V30 67 1 91 92
M  V30 68 1 92 93
M  V30 69 1 94 95
M  V30 70 1 95 96
M  V30 71 1 97 98
M  V30 72 1 98 99
M  V30 73 1 2 73
M  V30 74 1 3 97
M  V30 75 1 4 88
M  V30 76 1 5 91
M  V30 77 1 7 46
M  V30 78 1 8 58
M  V30 79 1 9 85
M  V30 80 1 10 55
M  V30 81 1 12 82
M  V30 82 1 13 70
M  V30 83 1 14 64
M  V30 84 1 15 79
M  V30 85 1 17 66
M  V30 86 1 18 52
M  V30 87 1 19 76
M  V30 88 1 20 61
M  V30 89 1 22 48
M  V30 90 1 23 72
M  V30 91 1 24 78
M  V30 92 1 25 49
M  V30 93 1 27 54
M  V30 94 1 28 67
M  V30 95 1 29 90
M  V30 96 1 30 63
M  V30 97 1 32 75
M  V30 98 1 33 69
M  V30 99 1 34 81
M  V30 100 1 35 84
M  V30 101 1 37 51
M  V30 102 1 38 94
M  V30 103 1 39 87
M  V30 104 1 40 93
M  V30 105 1 42 60
M  V30 106 1 43 99
M  V30 107 1 44 96
M  V30 108 1 45 57
M  V30 END BOND
M  V30 END CTAB
M  END

$$$$
