
     RDKit          3D

  0  0  0  0  0  0  0  0  0  0999 V3000
M  V30 BEGIN CTAB
M  V30 COUNTS 99 108 0 0 0
M  V30 BEGIN ATOM
M  V30 1 Pd 3.1369 -5.6187 -1.4347 0
M  V30 2 Pb 2.8255 -5.6735 -0.4871 0
M  V30 3 Pb 3.9672 -6.1415 -1.2383 0
M  V30 4 Pb 3.4698 -5.4916 -2.3671 0
M  V30 5 Pb 2.3714 -5.0041 -1.6184 0
M  V30 6 Pd 7.3305 -3.4724 -2.0943 0
M  V30 7 Pb 7.2241 -2.5045 -2.3250 0
M  V30 8 Pb 6.7891 -3.7434 -2.8883 0
M  V30 9 Pb 7.3286 -4.4294 -1.8011 0
M  V30 10 Pb 7.8368 -3.2005 -1.2783 0
M  V30 11 Pd -0.5026 4.7614 2.3852 0
M  V30 12 Pb -0.8839 4.3575 3.2100 0
M  V30 13 Pb -0.1362 5.0908 1.5143 0
M  V30 14 Pb -1.4138 5.1213 2.1838 0
M  V30 15 Pb 0.3705 4.3255 2.5927 0
M  V30 16 Pd -7.5511 2.7892 0.0041 0
M  V30 17 Pb -8.1454 2.1534 -0.4854 0
M  V30 18 Pb -7.6102 2.2041 0.8202 0
M  V30 19 Pb -7.4867 3.3305 -0.8390 0
M  V30 20 Pb -6.9413 3.4463 0.4515 0
M  V30 21 Pd 1.4437 -0.5253 3.3941 0
M  V30 22 Pb 0.6604 -0.5330 2.7689 0
M  V30 23 Pb 2.2843 -0.5544 3.9309 0
M  V30 24 Pb 1.5924 0.4647 3.3180 0
M  V30 25 Pb 1.3943 -1.5231 3.4121 0
M  V30 26 Pd 5.8295 0.0736 1.1932 0
M  V30 27 Pb 5.9849 0.2028 0.2116 0
M  V30 28 Pb 4.9756 0.6002 1.1778 0
M  V30 29 Pb 6.6693 -0.4668 1.2292 0
M  V30 30 Pb 5.6836 -0.0778 2.1717 0
M  V30 31 Pd -4.4033 -0.8747 2.3204 0
M  V30 32 Pb -3.4457 -0.9460 2.0330 0
M  V30 33 Pb -4.6500 -1.3754 1.4914 0
M  V30 34 Pb -4.1272 -0.3505 3.1200 0
M  V30 35 Pb -5.3594 -0.6538 2.5203 0
M  V30 36 Pd 0.9029 1.8398 -1.5932 0
M  V30 37 Pb 0.3185 1.9078 -2.4035 0
M  V30 38 Pb 0.9447 2.8380 -1.5186 0
M  V30 39 Pb 0.8043 0.8449 -1.6533 0
M  V30 40 Pb 1.4633 1.7858 -0.7628 0
M  V30 41 Pd -6.2004 0.9698 -4.2204 0
M  V30 42 Pb -6.4477 1.9361 -4.2508 0
M  V30 43 Pb -7.1135 0.7703 -3.8704 0
M  V30 44 Pb -5.9480 0.0349 -3.9888 0
M  V30 45 Pb -5.2630 1.1834 -4.4987 0
M  V30 46 Ag -2.1271 5.3282 2.0757 0
M  V30 47 Fe -4.3103 4.6721 1.4038 0
M  V30 48 Ag -6.4773 3.9711 0.7248 0
M  V30 49 Ag -0.1383 1.9338 -2.9995 0
M  V30 50 Fe -2.3299 1.6561 -3.8754 0
M  V30 51 Ag -4.5511 1.3559 -4.6650 0
M  V30 52 Ag -4.7763 -1.7094 0.8326 0
M  V30 53 Fe -5.2742 -1.3489 -1.4584 0
M  V30 54 Ag -5.7941 -0.6124 -3.6520 0
M  V30 55 Ag 1.8322 -4.4962 -1.7281 0
M  V30 56 Fe 1.2567 -2.1913 -1.7292 0
M  V30 57 Ag 0.6670 0.1100 -1.7327 0
M  V30 58 Ag -1.2149 3.9712 3.7520 0
M  V30 59 Fe -2.5702 2.0432 3.9585 0
M  V30 60 Ag -3.8806 0.0956 3.6622 0
M  V30 61 Ag 2.5716 -5.6217 0.2155 0
M  V30 62 Fe 1.9522 -4.0523 1.8850 0
M  V30 63 Ag 1.4073 -2.2699 3.3548 0
M  V30 64 Ba 8.1788 -2.9595 -0.6583 0
M  V30 65 Ga 7.7759 -1.9309 0.3156 0
M  V30 66 Ba 7.2893 -0.8874 1.2341 0
M  V30 67 Ba 4.6381 -6.4600 -1.1279 0
M  V30 68 Ga 5.9766 -5.8691 -1.3265 0
M  V30 69 Ba 7.2360 -5.1384 -1.5714 0
M  V30 70 Ba -7.4362 3.6985 -1.4952 0
M  V30 71 Ga -7.0524 3.2441 -2.8478 0
M  V30 72 Ba -6.6470 2.6487 -4.1374 0
M  V30 73 Ba 3.7734 -5.3500 -3.0357 0
M  V30 74 Ga 5.0478 -4.6742 -3.3263 0
M  V30 75 Ba 6.3425 -3.9841 -3.4382 0
M  V30 76 Ba 2.9563 -0.5610 4.2586 0
M  V30 77 Ga 4.2802 -0.3841 3.6358 0
M  V30 78 Ba 5.5431 -0.1942 2.8999 0
M  V30 79 Ba 7.0964 -1.7732 -2.4384 0
M  V30 80 Ga 6.6202 -0.7240 -1.5133 0
M  V30 81 Ba 6.1418 0.2615 -0.5218 0
M  V30 82 Ba 4.3331 0.9869 1.2488 0
M  V30 83 Ga 3.1153 1.3610 0.4978 0
M  V30 84 Ba 1.8486 1.8142 -0.1163 0
M  V30 85 Ba 0.1304 -0.6172 2.2413 0
M  V30 86 Ga -1.3302 -0.7679 2.0713 0
M  V30 87 Ba -2.7581 -0.9337 1.7270 0
M  V30 88 Ba 1.0068 3.9697 2.7596 0
M  V30 89 Ga 1.3704 2.5602 3.0103 0
M  V30 90 Ba 1.8262 1.1809 3.2761 0
M  V30 91 Ba -8.5573 1.6954 -0.9103 0
M  V30 92 Ga -8.2388 1.1269 -2.2297 0
M  V30 93 Ba -7.7701 0.6404 -3.5370 0
M  V30 94 Ba -7.6856 1.7279 1.4026 0
M  V30 95 Ga -6.8756 0.6595 2.0319 0
M  V30 96 Ba -6.0565 -0.4055 2.6550 0
M  V30 97 Ba 0.1455 5.2829 0.8454 0
M  V30 98 Ga 0.5617 4.4646 -0.3116 0
M  V30 99 Ba 0.9582 3.5843 -1.4294 0
M  V30 END ATOM
M  V30 BEGIN BOND
M  V30 1 1 1 2
M  V30 2 1 1 3
M  V30 3 1 1 4
M  V30 4 1 1 5
M  V30 5 1 6 7
M  V30 6 1 6 8
M  V30 7 1 6 9
M  V30 8 1 6 10
M  V30 9 1 11 12
M  V30 10 1 11 13
M  V30 11 1 11 14
M  V30 12 1 11 15
M  V30 13 1 16 17
M  V30 14 1 16 18
M  V30 15 1 16 19
M  V30 16 1 16 20
M  V30 17 1 21 22
M  V30 18 1 21 23
M  V30 19 1 21 24
M  V30 20 1 21 25
M  V30 21 1 26 27
M  V30 22 1 26 28
M  V30 23 1 26 29
M  V30 24 1 26 30
M  V30 25 1 31 32
M  V30 26 1 31 33
M  V30 27 1 31 34
M  V30 28 1 31 35
M  V30 29 1 36 37
M  V30 30 1 36 38
M  V30 31 1 36 39
M  V30 32 1 36 40
M  V30 33 1 41 42
M  V30 34 1 41 43
M  V30 35 1 41 44
M  V30 36 1 41 45
M  V30 37 1 46 47
M  V30 38 1 47 48
M  V30 39 1 49 50
M  V30 40 1 50 51
M  V30 41 1 52 53
M  V30 42 1 53 54
M  V30 43 1 55 56
M  V30 44 1 56 57
M  V30 45 1 58 59
M  V30 46 1 59 60
M  V30 47 1 61 62
M  V30 48 1 62 63
M  V30 49 1 64 65
M  V30 50 1 65 66
M  V30 51 1 67 68
M  V30 52 1 68 69
M  V30 53 1 70 71
M  V30 54 1 71 72
M  V30 55 1 73 74
M  V30 56 1 74 75
M  V30 57 1 76 77
M  V30 58 1 77 78
M  V30 59 1 79 80
M  V30 60 1 80 81
M  V30 61 1 82 83
M  V30 62 1 83 84
M  V30 63 1 85 86
M  V30 64 1 86 87
M  V30 65 1 88 89
M  V30 66 1 89 90
M  V30 67 1 91 92
M  V30 68 1 92 93
M  V30 69 1 94 95
M  V30 70 1 95 96
M  V30 71 1 97 98
M  V30 72 1 98 99
M  V30 73 1 2 61
M  V30 74 1 3 67
M  V30 75 1 4 73
M  V30 76 1 5 55
M  V30 77 1 7 79
M  V30 78 1 8 75
M  V30 79 1 9 69
M  V30 80 1 10 64
M  V30 81 1 12 58
M  V30 82 1 13 97
M  V30 83 1 14 46
M  V30 84 1 15 88
M  V30 85 1 17 91
M  V30 86 1 18 94
M  V30 87 1 19 70
M  V30 88 1 20 48
M  V30 89 1 22 85
M  V30 90 1 23 76
M  V30 91 1 24 90
M  V30 92 1 25 63
M  V30 93 1 27 81
M  V30 94 1 28 82
M  V30 95 1 29 66
M  V30 96 1 30 78
M  V30 97 1 32 87
M  V30 98 1 33 52
M  V30 99 1 34 60
M  V30 100 1 35 96
M  V30 101 1 37 49
M  V30 102 1 38 99
M  V30 103 1 39 57
M  V30 104 1 40 84
M  V30 105 1 42 72
M  V30 106 1 43 93
M  V30 107 1 44 54
M  V30 108 1 45 51
M  V30 END BOND
M  V30 END CTAB
M  END

$$$$
