
     RDKit          3D

  0  0  0  0  0  0  0  0  0  0999 V3000
M  V30 BEGIN CTAB
M  V30 COUNTS 99 108 0 0 0
M  V30 BEGIN ATOM
M  V30 1 Pd 3.1902 0.9513 3.3165 0
M  V30 2 Pb 2.7371 0.2482 3.8610 0
M  V30 3 Pb 3.9026 0.2850 3.1011 0
M  V30 4 Pb 2.4843 1.5986 3.6136 0
M  V30 5 Pb 3.5966 1.6008 2.6720 0
M  V30 6 Pd -0.8906 5.2530 2.5086 0
M  V30 7 Pb -1.3386 5.9585 1.9674 0
M  V30 8 Pb -0.4005 4.9665 1.6836 0
M  V30 9 Pb -0.4260 4.5779 3.0843 0
M  V30 10 Pb -1.5215 5.4691 3.2534 0
M  V30 11 Pd -3.6016 4.1795 -1.2417 0
M  V30 12 Pb -3.6915 3.2217 -1.5087 0
M  V30 13 Pb -2.6040 4.1274 -1.3371 0
M  V30 14 Pb -4.5673 4.2291 -0.9949 0
M  V30 15 Pb -3.5046 5.1348 -0.9835 0
M  V30 16 Pd -3.5195 -1.9867 3.5556 0
M  V30 17 Pb -3.6236 -1.3040 4.2773 0
M  V30 18 Pb -3.4108 -2.6634 2.8241 0
M  V30 19 Pb -4.3925 -1.6879 3.1682 0
M  V30 20 Pb -2.6261 -2.2127 3.9391 0
M  V30 21 Pd -0.0584 -1.2807 -4.9826 0
M  V30 22 Pb 0.8000 -1.4004 -5.4820 0
M  V30 23 Pb -0.2720 -2.2571 -5.0491 0
M  V30 24 Pb -0.9028 -1.1261 -4.4739 0
M  V30 25 Pb 0.1457 -0.3028 -4.9127 0
M  V30 26 Pd -5.4500 2.8621 3.3914 0
M  V30 27 Pb -5.8289 1.9996 3.0487 0
M  V30 28 Pb -5.0522 2.3634 4.1591 0
M  V30 29 Pb -5.8660 3.3353 2.6110 0
M  V30 30 Pb -5.0385 3.7033 3.7549 0
M  V30 31 Pd 5.4810 -5.1632 -0.6507 0
M  V30 32 Pb 4.8091 -5.6676 -0.1085 0
M  V30 33 Pb 6.0854 -4.5926 -1.2020 0
M  V30 34 Pb 5.1748 -5.6609 -1.4601 0
M  V30 35 Pb 5.7286 -4.6006 0.1346 0
M  V30 36 Pd 4.3770 1.0934 -4.0132 0
M  V30 37 Pb 5.2003 0.5582 -3.8365 0
M  V30 38 Pb 3.5104 1.5613 -4.1762 0
M  V30 39 Pb 4.5450 1.6578 -3.2019 0
M  V30 40 Pb 4.1686 0.4820 -4.7777 0
M  V30 41 Pd 0.5953 -5.8847 -1.9420 0
M  V30 42 Pb -0.2364 -5.6495 -1.4339 0
M  V30 43 Pb 1.4222 -6.1435 -2.4427 0
M  V30 44 Pb 1.0506 -6.1615 -1.0942 0
M  V30 45 Pb 0.1613 -5.6121 -2.8027 0
M  V30 46 Ag 4.4239 -0.2418 2.9921 0
M  V30 47 Fe 5.1915 -2.1816 1.8609 0
M  V30 48 Ag 5.8917 -4.1180 0.6815 0
M  V30 49 Ag -3.3465 -3.1670 2.2687 0
M  V30 50 Fe -2.0765 -4.3116 0.6163 0
M  V30 51 Ag -0.8680 -5.4941 -1.0555 0
M  V30 52 Ag -3.7316 2.5063 -1.7245 0
M  V30 53 Fe -2.6869 0.7217 -2.8875 0
M  V30 54 Ag -1.5192 -0.9618 -4.0838 0
M  V30 55 Ag 3.8893 2.0237 2.1244 0
M  V30 56 Fe 4.3068 2.1232 -0.2139 0
M  V30 57 Ag 4.6413 2.0495 -2.5666 0
M  V30 58 Ag 6.4780 -4.0902 -1.5917 0
M  V30 59 Fe 6.2767 -1.9972 -2.6885 0
M  V30 60 Ag 5.7628 0.0849 -3.7010 0
M  V30 61 Ag 2.3544 -0.3015 4.1943 0
M  V30 62 Fe 0.2452 -1.3829 4.3001 0
M  V30 63 Ag -1.9444 -2.2944 4.2363 0
M  V30 64 Ba 4.2600 -6.0166 0.2646 0
M  V30 65 Ga 2.8365 -6.2157 -0.0712 0
M  V30 66 Ba 1.4268 -6.3732 -0.4793 0
M  V30 67 Ba -3.6977 -0.7798 4.8068 0
M  V30 68 Ga -4.2227 0.5961 4.7931 0
M  V30 69 Ba -4.7595 1.9655 4.7211 0
M  V30 70 Ba -5.0336 -1.4145 2.8886 0
M  V30 71 Ga -5.5863 -0.0454 2.8332 0
M  V30 72 Ba -6.0964 1.3409 2.8023 0
M  V30 73 Ba -2.0704 5.6099 3.7455 0
M  V30 74 Ga -3.3910 4.9692 3.9283 0
M  V30 75 Ba -4.7015 4.2988 4.0737 0
M  V30 76 Ba -0.1435 4.7479 1.0112 0
M  V30 77 Ga -0.9323 4.4121 -0.1956 0
M  V30 78 Ba -1.8506 4.1078 -1.3163 0
M  V30 79 Ba -0.4560 -2.9843 -5.0998 0
M  V30 80 Ga -0.2930 -4.1930 -4.2661 0
M  V30 81 Ba -0.1497 -5.4231 -3.4605 0
M  V30 82 Ba -1.6931 6.4629 1.5486 0
M  V30 83 Ga -2.5587 6.2440 0.3869 0
M  V30 84 Ba -3.3876 5.8303 -0.7479 0
M  V30 85 Ba 4.8861 -6.0041 -2.0593 0
M  V30 86 Ga 3.4815 -6.1978 -2.4632 0
M  V30 87 Ba 2.0528 -6.3489 -2.7944 0
M  V30 88 Ba 0.3087 0.4286 -4.8586 0
M  V30 89 Ga 1.5509 1.1749 -4.5851 0
M  V30 90 Ba 2.8321 1.8493 -4.3057 0
M  V30 91 Ba 1.9516 2.0242 3.9328 0
M  V30 92 Ga 0.9472 3.0731 3.6617 0
M  V30 93 Ba -0.1015 4.1103 3.5748 0
M  V30 94 Ba 1.4572 -1.4349 -5.8425 0
M  V30 95 Ga 2.7375 -0.7371 -5.6130 0
M  V30 96 Ba 3.9843 -0.0031 -5.3206 0
M  V30 97 Ba -5.2595 4.2868 -0.7160 0
M  V30 98 Ga -5.7609 3.9725 0.6366 0
M  V30 99 Ba -6.1978 3.6391 2.0070 0
M  V30 END ATOM
M  V30 BEGIN BOND
M  V30 1 1 1 2
M  V30 2 1 1 3
M  V30 3 1 1 4
M  V30 4 1 1 5
M  V30 5 1 6 7
M  V30 6 1 6 8
M  V30 7 1 6 9
M  V30 8 1 6 10
M  V30 9 1 11 12
M  V30 10 1 11 13
M  V30 11 1 11 14
M  V30 12 1 11 15
M  V30 13 1 16 17
M  V30 14 1 16 18
M  V30 15 1 16 19
M  V30 16 1 16 20
M  V30 17 1 21 22
M  V30 18 1 21 23
M  V30 19 1 21 24
M  V30 20 1 21 25
M  V30 21 1 26 27
M  V30 22 1 26 28
M  V30 23 1 26 29
M  V30 24 1 26 30
M  V30 25 1 31 32
M  V30 26 1 31 33
M  V30 27 1 31 34
M  V30 28 1 31 35
M  V30 29 1 36 37
M  V30 30 1 36 38
M  V30 31 1 36 39
M  V30 32 1 36 40
M  V30 33 1 41 42
M  V30 34 1 41 43
M  V30 35 1 41 44
M  V30 36 1 41 45
M  V30 37 1 46 47
M  V30 38 1 47 48
M  V30 39 1 49 50
M  V30 40 1 50 51
M  V30 41 1 52 53
M  V30 42 1 53 54
M  V30 43 1 55 56
M  V30 44 1 56 57
M  V30 45 1 58 59
M  V30 46 1 59 60
M  V30 47 1 61 62
M  V30 48 1 62 63
M  V30 49 1 64 65
M  V30 50 1 65 66
M  V30 51 1 67 68
M  V30 52 1 68 69
M  V30 53 1 70 71
M  V30 54 1 71 72
M  V30 55 1 73 74
M  V30 56 1 74 75
M  V30 57 1 76 77
M  V30 58 1 77 78
M  V30 59 1 79 80
M  V30 60 1 80 81
M  V30 61 1 82 83
M  V30 62 1 83 84
M  V30 63 1 85 86
M  V30 64 1 86 87
M  V30 65 1 88 89
M  V30 66 1 89 90
M  V30 67 1 91 92
M  V30 68 1 92 93
M  V30 69 1 94 95
M  V30 70 1 95 96
M  V30 71 1 97 98
M  V30 72 1 98 99
M  V30 73 1 2 61
M  V30 74 1 3 46
M  V30 75 1 4 91
M  V30 76 1 5 55
M  V30 77 1 7 82
M  V30 78 1 8 76
M  V30 79 1 9 93
M  V30 80 1 10 73
M  V30 81 1 12 52
M  V30 82 1 13 78
M  V30 83 1 14 97
M  V30 84 1 15 84
M  V30 85 1 17 67
M  V30 86 1 18 49
M  V30 87 1 19 70
M  V30 88 1 20 63
M  V30 89 1 22 94
M  V30 90 1 23 79
M  V30 91 1 24 54
M  V30 92 1 25 88
M  V30 93 1 27 72
M  V30 94 1 28 69
M  V30 95 1 29 99
M  V30 96 1 30 75
M  V30 97 1 32 64
M  V30 98 1 33 58
M  V30 99 1 34 85
M  V30 100 1 35 48
M  V30 101 1 37 60
M  V30 102 1 38 90
M  V30 103 1 39 57
M  V30 104 1 40 96
M  V30 105 1 42 51
M  V30 106 1 43 87
M  V30 107 1 44 66
M  V30 108 1 45 81
M  V30 END BOND
M  V30 END CTAB
M  END

$$$$
