
     RDKit          3D

  0  0  0  0  0  0  0  0  0  0999 V3000
M  V30 BEGIN CTAB
M  V30 COUNTS 99 108 0 0 0
M  V30 BEGIN ATOM
M  V30 1 Pd 4.1049 -0.6865 1.5601 0
M  V30 2 Pb 4.6799 -0.3606 2.3124 0
M  V30 3 Pb 3.5116 -1.0585 0.8477 0
M  V30 4 Pb 4.3369 -1.6377 1.7545 0
M  V30 5 Pb 3.7740 0.2452 1.3918 0
M  V30 6 Pd -0.4231 1.9868 -7.3420 0
M  V30 7 Pb -1.3516 2.1668 -7.0177 0
M  V30 8 Pb 0.5006 1.7770 -7.6522 0
M  V30 9 Pb -0.1860 2.9577 -7.3105 0
M  V30 10 Pb -0.5667 0.9980 -7.2682 0
M  V30 11 Pd -3.5209 1.8083 3.2603 0
M  V30 12 Pb -2.6531 2.2979 3.3724 0
M  V30 13 Pb -3.7820 2.4040 2.5004 0
M  V30 14 Pb -4.3591 1.2692 3.1776 0
M  V30 15 Pb -3.2618 1.2647 4.0533 0
M  V30 16 Pd -4.2711 -3.3134 1.9447 0
M  V30 17 Pb -4.8651 -2.5946 2.3111 0
M  V30 18 Pb -4.1455 -3.7264 2.8500 0
M  V30 19 Pb -4.3974 -2.9014 1.0412 0
M  V30 20 Pb -3.6867 -4.0322 1.5651 0
M  V30 21 Pd -3.5732 2.9486 -2.5691 0
M  V30 22 Pb -3.5303 2.7926 -3.5586 0
M  V30 23 Pb -3.7427 3.1748 -1.6079 0
M  V30 24 Pb -3.9192 2.0182 -2.4381 0
M  V30 25 Pb -3.1766 3.8600 -2.6847 0
M  V30 26 Pd -0.1539 -5.8112 4.0015 0
M  V30 27 Pb -1.0570 -5.6684 4.4100 0
M  V30 28 Pb 0.3192 -5.5996 4.8564 0
M  V30 29 Pb 0.7544 -5.8586 3.5883 0
M  V30 30 Pb -0.6014 -5.9609 3.1198 0
M  V30 31 Pd 2.7569 0.1434 6.4144 0
M  V30 32 Pb 3.6835 0.2390 6.0519 0
M  V30 33 Pb 2.9335 -0.7676 6.7806 0
M  V30 34 Pb 1.8090 0.0184 6.6910 0
M  V30 35 Pb 2.4717 0.9924 5.9669 0
M  V30 36 Pd 1.4844 4.7208 -3.2407 0
M  V30 37 Pb 0.5941 5.1591 -3.1050 0
M  V30 38 Pb 2.3679 4.2607 -3.3432 0
M  V30 39 Pb 1.3848 4.9165 -4.2200 0
M  V30 40 Pb 1.5846 4.5099 -2.2677 0
M  V30 41 Pd 3.7915 -1.9149 -4.0075 0
M  V30 42 Pb 4.0905 -1.6242 -4.9109 0
M  V30 43 Pb 3.3802 -2.0977 -3.1156 0
M  V30 44 Pb 4.3838 -1.2052 -3.6365 0
M  V30 45 Pb 3.0442 -2.4074 -4.4514 0
M  V30 46 Ag -4.5160 -2.5672 0.3791 0
M  V30 47 Fe -4.3357 -0.6344 -0.9918 0
M  V30 48 Ag -4.1469 1.3078 -2.3480 0
M  V30 49 Ag -3.0115 0.9097 4.6591 0
M  V30 50 Fe -1.0457 0.3416 5.8523 0
M  V30 51 Ag 1.0799 -0.0793 6.8090 0
M  V30 52 Ag -0.5523 0.2556 -7.1499 0
M  V30 53 Fe 0.7910 -1.3717 -6.0574 0
M  V30 54 Ag 2.4249 -2.5870 -4.8333 0
M  V30 55 Ag 1.1877 1.5395 -7.8189 0
M  V30 56 Fe 2.8760 0.1466 -6.9173 0
M  V30 57 Ag 4.1803 -1.3025 -5.5754 0
M  V30 58 Ag -1.9780 2.6017 3.5088 0
M  V30 59 Fe 0.1386 2.2136 4.5204 0
M  V30 60 Ag 2.1559 1.5681 5.6012 0
M  V30 61 Ag 4.3825 -2.3747 1.8750 0
M  V30 62 Fe 3.0483 -4.2065 2.5793 0
M  V30 63 Ag 1.4546 -5.7970 3.3295 0
M  V30 64 Ag 3.4771 0.9298 1.2904 0
M  V30 65 Fe 2.5967 2.6346 -0.1134 0
M  V30 66 Ag 1.7277 4.3112 -1.5578 0
M  V30 67 Ag 3.0102 3.8713 -3.3090 0
M  V30 68 Fe 4.0180 1.7210 -3.3495 0
M  V30 69 Ag 4.7022 -0.5495 -3.4725 0
M  V30 70 Ag 0.7466 -5.3860 5.4344 0
M  V30 71 Fe 1.9069 -3.5319 6.3566 0
M  V30 72 Ag 2.9202 -1.4834 6.9969 0
M  V30 73 Ba -2.0574 2.2761 -6.7894 0
M  V30 74 Ga -2.7722 2.4921 -5.5152 0
M  V30 75 Ba -3.5889 2.7115 -4.3047 0
M  V30 76 Ba 5.0907 -0.1340 2.8992 0
M  V30 77 Ga 4.7616 0.0987 4.3189 0
M  V30 78 Ba 4.3525 0.3100 5.7210 0
M  V30 79 Ba -2.8588 4.5377 -2.7420 0
M  V30 80 Ga -1.4692 5.0154 -2.8884 0
M  V30 81 Ba -0.0779 5.4883 -3.0346 0
M  V30 82 Ba -4.0345 -4.0605 3.5156 0
M  V30 83 Ga -2.9006 -4.7937 4.1178 0
M  V30 84 Ba -1.7420 -5.5192 4.6810 0
M  V30 85 Ba -3.2482 -4.5830 1.3031 0
M  V30 86 Ga -2.0987 -5.3218 1.8610 0
M  V30 87 Ba -0.9526 -6.0325 2.4608 0
M  V30 88 Ba -4.9632 0.8248 3.1540 0
M  V30 89 Ga -5.1528 -0.6073 2.8476 0
M  V30 90 Ba -5.3211 -2.0414 2.5381 0
M  V30 91 Ba 0.0612 3.6629 -7.2414 0
M  V30 92 Ga 0.6597 4.3894 -6.1015 0
M  V30 93 Ba 1.2558 5.0874 -4.9427 0
M  V30 94 Ba 3.0697 -1.4186 0.3610 0
M  V30 95 Ga 3.0700 -1.7857 -1.0670 0
M  V30 96 Ba 2.9931 -2.1954 -2.4813 0
M  V30 97 Ba -3.9796 2.8990 1.9726 0
M  V30 98 Ga -3.9183 3.0876 0.5095 0
M  V30 99 Ba -3.9353 3.4285 -0.9267 0
M  V30 END ATOM
M  V30 BEGIN BOND
M  V30 1 1 1 2
M  V30 2 1 1 3
M  V30 3 1 1 4
M  V30 4 1 1 5
M  V30 5 1 6 7
M  V30 6 1 6 8
M  V30 7 1 6 9
M  V30 8 1 6 10
M  V30 9 1 11 12
M  V30 10 1 11 13
M  V30 11 1 11 14
M  V30 12 1 11 15
M  V30 13 1 16 17
M  V30 14 1 16 18
M  V30 15 1 16 19
M  V30 16 1 16 20
M  V30 17 1 21 22
M  V30 18 1 21 23
M  V30 19 1 21 24
M  V30 20 1 21 25
M  V30 21 1 26 27
M  V30 22 1 26 28
M  V30 23 1 26 29
M  V30 24 1 26 30
M  V30 25 1 31 32
M  V30 26 1 31 33
M  V30 27 1 31 34
M  V30 28 1 31 35
M  V30 29 1 36 37
M  V30 30 1 36 38
M  V30 31 1 36 39
M  V30 32 1 36 40
M  V30 33 1 41 42
M  V30 34 1 41 43
M  V30 35 1 41 44
M  V30 36 1 41 45
M  V30 37 1 46 47
M  V30 38 1 47 48
M  V30 39 1 49 50
M  V30 40 1 50 51
M  V30 41 1 52 53
M  V30 42 1 53 54
M  V30 43 1 55 56
M  V30 44 1 56 57
M  V30 45 1 58 59
M  V30 46 1 59 60
M  V30 47 1 61 62
M  V30 48 1 62 63
M  V30 49 1 64 65
M  V30 50 1 65 66
M  V30 51 1 67 68
M  V30 52 1 68 69
M  V30 53 1 70 71
M  V30 54 1 71 72
M  V30 55 1 73 74
M  V30 56 1 74 75
M  V30 57 1 76 77
M  V30 58 1 77 78
M  V30 59 1 79 80
M  V30 60 1 80 81
M  V30 61 1 82 83
M  V30 62 1 83 84
M  V30 63 1 85 86
M  V30 64 1 86 87
M  V30 65 1 88 89
M  V30 66 1 89 90
M  V30 67 1 91 92
M  V30 68 1 92 93
M  V30 69 1 94 95
M  V30 70 1 95 96
M  V30 71 1 97 98
M  V30 72 1 98 99
M  V30 73 1 2 76
M  V30 74 1 3 94
M  V30 75 1 4 61
M  V30 76 1 5 64
M  V30 77 1 7 73
M  V30 78 1 8 55
M  V30 79 1 9 91
M  V30 80 1 10 52
M  V30 81 1 12 58
M  V30 82 1 13 97
M  V30 83 1 14 88
M  V30 84 1 15 49
M  V30 85 1 17 90
M  V30 86 1 18 82
M  V30 87 1 19 46
M  V30 88 1 20 85
M  V30 89 1 22 75
M  V30 90 1 23 99
M  V30 91 1 24 48
M  V30 92 1 25 79
M  V30 93 1 27 84
M  V30 94 1 28 70
M  V30 95 1 29 63
M  V30 96 1 30 87
M  V30 97 1 32 78
M  V30 98 1 33 72
M  V30 99 1 34 51
M  V30 100 1 35 60
M  V30 101 1 37 81
M  V30 102 1 38 67
M  V30 103 1 39 93
M  V30 104 1 40 66
M  V30 105 1 42 57
M  V30 106 1 43 96
M  V30 107 1 44 69
M  V30 108 1 45 54
M  V30 END BOND
M  V30 END CTAB
M  END

$$$$
