
     RDKit          3D

  0  0  0  0  0  0  0  0  0  0999 V3000
M  V30 BEGIN CTAB
M  V30 COUNTS 99 108 0 0 0
M  V30 BEGIN ATOM
M  V30 1 Pd -5.8076 3.7194 -0.8544 0
M  V30 2 Pb -5.4491 2.8167 -1.0757 0
M  V30 3 Pb -6.4340 3.3076 -0.1931 0
M  V30 4 Pb -6.1181 4.6189 -0.5470 0
M  V30 5 Pb -5.1513 4.1192 -1.4956 0
M  V30 6 Pd -5.6078 4.7560 3.8396 0
M  V30 7 Pb -4.8823 5.3936 4.0837 0
M  V30 8 Pb -5.9901 5.4183 3.1938 0
M  V30 9 Pb -6.2902 4.0976 3.5297 0
M  V30 10 Pb -5.1607 4.0631 4.4088 0
M  V30 11 Pd -1.3081 -5.0602 -2.4685 0
M  V30 12 Pb -0.8093 -5.8724 -2.1699 0
M  V30 13 Pb -1.7256 -4.1904 -2.7378 0
M  V30 14 Pb -0.6421 -4.9878 -3.2077 0
M  V30 15 Pb -1.9288 -5.1279 -1.6878 0
M  V30 16 Pd 5.7325 -2.6484 -3.7997 0
M  V30 17 Pb 5.2758 -1.8202 -4.1346 0
M  V30 18 Pb 6.1611 -3.4676 -3.4037 0
M  V30 19 Pb 6.4713 -2.0660 -3.4615 0
M  V30 20 Pb 4.9743 -3.1883 -4.1610 0
M  V30 21 Pd -1.3836 -2.1197 1.7512 0
M  V30 22 Pb -0.7708 -2.6874 2.3009 0
M  V30 23 Pb -0.7893 -1.3316 1.9289 0
M  V30 24 Pb -1.9527 -2.9167 1.5504 0
M  V30 25 Pb -1.9581 -1.6006 1.1200 0
M  V30 26 Pd -0.7987 3.5189 3.3923 0
M  V30 27 Pb -1.1768 4.3992 3.6769 0
M  V30 28 Pb -0.2484 3.9832 2.6987 0
M  V30 29 Pb -1.4152 3.0739 4.0442 0
M  V30 30 Pb -0.3813 2.6475 3.1222 0
M  V30 31 Pd 5.0332 -5.6445 0.7481 0
M  V30 32 Pb 4.3589 -5.5466 1.4803 0
M  V30 33 Pb 5.5304 -4.8809 1.1542 0
M  V30 34 Pb 4.4483 -6.3433 0.3389 0
M  V30 35 Pb 5.6653 -5.6787 -0.0327 0
M  V30 36 Pd -0.7238 2.5442 -1.6166 0
M  V30 37 Pb -0.1327 1.9166 -1.1096 0
M  V30 38 Pb -1.1931 1.7736 -2.0550 0
M  V30 39 Pb -1.3329 3.1898 -2.0816 0
M  V30 40 Pb -0.2595 3.2961 -1.1495 0
M  V30 41 Pd 4.7672 1.0157 -0.9563 0
M  V30 42 Pb 5.6960 0.9572 -1.3159 0
M  V30 43 Pb 4.4370 1.1388 -1.8898 0
M  V30 44 Pb 5.1358 0.7200 -0.0797 0
M  V30 45 Pb 3.8331 0.9405 -0.6017 0
M  V30 46 Ag -0.0908 -4.9581 -3.7118 0
M  V30 47 Fe 2.1408 -4.2738 -4.1383 0
M  V30 48 Ag 4.3773 -3.5417 -4.4425 0
M  V30 49 Ag 5.7986 -4.2495 1.4510 0
M  V30 50 Fe 5.7464 -1.8975 1.1624 0
M  V30 51 Ag 5.4460 0.3556 0.4918 0
M  V30 52 Ag -0.3439 -6.4185 -1.9556 0
M  V30 53 Fe 1.7823 -6.7776 -0.9640 0
M  V30 54 Ag 3.9271 -6.7979 0.0519 0
M  V30 55 Ag -0.2767 -3.1291 2.6523 0
M  V30 56 Fe 1.7695 -4.3131 2.4239 0
M  V30 57 Ag 3.8249 -5.4222 1.9922 0
M  V30 58 Ag -5.1447 2.1449 -1.1899 0
M  V30 59 Fe -3.7673 0.4350 -0.2906 0
M  V30 60 Ag -2.3905 -1.2809 0.5982 0
M  V30 61 Ag -1.9936 -3.5120 -2.9203 0
M  V30 62 Fe -1.7973 -1.1559 -2.6647 0
M  V30 63 Ag -1.5512 1.1909 -2.3703 0
M  V30 64 Ba 0.2990 1.4740 -0.6847 0
M  V30 65 Ga 1.7363 1.1676 -0.5395 0
M  V30 66 Ba 3.1497 0.8010 -0.3200 0
M  V30 67 Ba -4.7707 3.5487 4.7948 0
M  V30 68 Ga -3.3557 3.1330 4.6948 0
M  V30 69 Ba -1.9289 2.7915 4.5149 0
M  V30 70 Ba -6.8771 3.0217 0.3395 0
M  V30 71 Ga -6.8877 3.2694 1.7907 0
M  V30 72 Ba -6.7728 3.6213 3.2156 0
M  V30 73 Ba 6.9745 -1.5655 -3.2203 0
M  V30 74 Ga 6.7628 -0.3555 -2.4079 0
M  V30 75 Ba 6.3756 0.8051 -1.5883 0
M  V30 76 Ba -6.3416 5.2613 -0.2306 0
M  V30 77 Ga -6.3267 5.6355 1.1970 0
M  V30 78 Ba -6.2500 5.8692 2.6524 0
M  V30 79 Ba -0.2910 -0.7830 2.0613 0
M  V30 80 Ga -0.2248 0.6296 2.4930 0
M  V30 81 Ba -0.0045 2.0307 2.9110 0
M  V30 82 Ba -4.6351 4.3832 -1.9728 0
M  V30 83 Ga -3.2160 4.0453 -2.2052 0
M  V30 84 Ba -1.7992 3.6806 -2.4092 0
M  V30 85 Ba -4.2898 5.8222 4.2315 0
M  V30 86 Ga -2.8634 5.4918 4.0878 0
M  V30 87 Ba -1.4721 5.0492 3.9045 0
M  V30 88 Ba 0.1229 4.3289 2.1466 0
M  V30 89 Ga 0.1386 4.1106 0.6885 0
M  V30 90 Ba 0.0985 3.8253 -0.7576 0
M  V30 91 Ba -2.3647 -5.1614 -1.0790 0
M  V30 92 Ga -2.3989 -4.3551 0.1549 0
M  V30 93 Ba -2.3747 -3.5064 1.3603 0
M  V30 94 Ba 4.9238 -1.1851 -4.3351 0
M  V30 95 Ga 4.5526 0.0037 -3.5417 0
M  V30 96 Ba 4.2546 1.1136 -2.6151 0
M  V30 97 Ba 6.4817 -4.0778 -3.0935 0
M  V30 98 Ga 6.2939 -4.8772 -1.8590 0
M  V30 99 Ba 6.1252 -5.6918 -0.6317 0
M  V30 END ATOM
M  V30 BEGIN BOND
M  V30 1 1 1 2
M  V30 2 1 1 3
M  V30 3 1 1 4
M  V30 4 1 1 5
M  V30 5 1 6 7
M  V30 6 1 6 8
M  V30 7 1 6 9
M  V30 8 1 6 10
M  V30 9 1 11 12
M  V30 10 1 11 13
M  V30 11 1 11 14
M  V30 12 1 11 15
M  V30 13 1 16 17
M  V30 14 1 16 18
M  V30 15 1 16 19
M  V30 16 1 16 20
M  V30 17 1 21 22
M  V30 18 1 21 23
M  V30 19 1 21 24
M  V30 20 1 21 25
M  V30 21 1 26 27
M  V30 22 1 26 28
M  V30 23 1 26 29
M  V30 24 1 26 30
M  V30 25 1 31 32
M  V30 26 1 31 33
M  V30 27 1 31 34
M  V30 28 1 31 35
M  V30 29 1 36 37
M  V30 30 1 36 38
M  V30 31 1 36 39
M  V30 32 1 36 40
M  V30 33 1 41 42
M  V30 34 1 41 43
M  V30 35 1 41 44
M  V30 36 1 41 45
M  V30 37 1 46 47
M  V30 38 1 47 48
M  V30 39 1 49 50
M  V30 40 1 50 51
M  V30 41 1 52 53
M  V30 42 1 53 54
M  V30 43 1 55 56
M  V30 44 1 56 57
M  V30 45 1 58 59
M  V30 46 1 59 60
M  V30 47 1 61 62
M  V30 48 1 62 63
M  V30 49 1 64 65
M  V30 50 1 65 66
M  V30 51 1 67 68
M  V30 52 1 68 69
M  V30 53 1 70 71
M  V30 54 1 71 72
M  V30 55 1 73 74
M  V30 56 1 74 75
M  V30 57 1 76 77
M  V30 58 1 77 78
M  V30 59 1 79 80
M  V30 60 1 80 81
M  V30 61 1 82 83
M  V30 62 1 83 84
M  V30 63 1 85 86
M  V30 64 1 86 87
M  V30 65 1 88 89
M  V30 66 1 89 90
M  V30 67 1 91 92
M  V30 68 1 92 93
M  V30 69 1 94 95
M  V30 70 1 95 96
M  V30 71 1 97 98
M  V30 72 1 98 99
M  V30 73 1 2 58
M  V30 74 1 3 70
M  V30 75 1 4 76
M  V30 76 1 5 82
M  V30 77 1 7 85
M  V30 78 1 8 78
M  V30 79 1 9 72
M  V30 80 1 10 67
M  V30 81 1 12 52
M  V30 82 1 13 61
M  V30 83 1 14 46
M  V30 84 1 15 91
M  V30 85 1 17 94
M  V30 86 1 18 97
M  V30 87 1 19 73
M  V30 88 1 20 48
M  V30 89 1 22 55
M  V30 90 1 23 79
M  V30 91 1 24 93
M  V30 92 1 25 60
M  V30 93 1 27 87
M  V30 94 1 28 88
M  V30 95 1 29 69
M  V30 96 1 30 81
M  V30 97 1 32 57
M  V30 98 1 33 49
M  V30 99 1 34 54
M  V30 100 1 35 99
M  V30 101 1 37 64
M  V30 102 1 38 63
M  V30 103 1 39 84
M  V30 104 1 40 90
M  V30 105 1 42 75
M  V30 106 1 43 96
M  V30 107 1 44 51
M  V30 108 1 45 66
M  V30 END BOND
M  V30 END CTAB
M  END

$$$$
