
     RDKit          3D

  0  0  0  0  0  0  0  0  0  0999 V3000
M  V30 BEGIN CTAB
M  V30 COUNTS 99 108 0 0 0
M  V30 BEGIN ATOM
M  V30 1 Pd 3.3517 0.6942 1.2332 0
M  V30 2 Pb 3.2387 0.1626 2.0719 0
M  V30 3 Pb 3.4588 1.1993 0.3761 0
M  V30 4 Pb 4.2749 0.3220 1.1429 0
M  V30 5 Pb 2.3819 0.9342 1.2660 0
M  V30 6 Pd -3.2312 8.2557 -0.5667 0
M  V30 7 Pb -3.9205 7.6105 -0.8948 0
M  V30 8 Pb -2.5088 8.8579 -0.2482 0
M  V30 9 Pb -3.4685 8.1045 0.3930 0
M  V30 10 Pb -2.7791 8.2529 -1.4612 0
M  V30 11 Pd -3.1454 -4.5355 0.5472 0
M  V30 12 Pb -3.4424 -5.4584 0.7761 0
M  V30 13 Pb -2.7763 -3.6282 0.3378 0
M  V30 14 Pb -3.2298 -4.7787 -0.4197 0
M  V30 15 Pb -2.9798 -4.3668 1.5327 0
M  V30 16 Pd -0.2669 -4.4444 -4.3646 0
M  V30 17 Pb -1.0417 -4.8651 -3.8897 0
M  V30 18 Pb 0.4601 -4.0167 -4.8874 0
M  V30 19 Pb -0.8985 -3.7250 -4.6495 0
M  V30 20 Pb 0.4034 -5.1352 -4.0187 0
M  V30 21 Pd -4.0475 1.0298 -1.1209 0
M  V30 22 Pb -4.6042 1.7850 -1.4602 0
M  V30 23 Pb -3.4202 0.3294 -0.7762 0
M  V30 24 Pb -3.9357 0.6418 -2.0348 0
M  V30 25 Pb -4.1513 1.4358 -0.2124 0
M  V30 26 Pd 4.9327 -5.3806 -1.6544 0
M  V30 27 Pb 5.1069 -4.8890 -2.4988 0
M  V30 28 Pb 4.7874 -5.8687 -0.7919 0
M  V30 29 Pb 5.5983 -4.7902 -1.2000 0
M  V30 30 Pb 4.1408 -5.8461 -2.0991 0
M  V30 31 Pd 0.6923 -5.8123 4.3949 0
M  V30 32 Pb 1.1734 -4.9438 4.5124 0
M  V30 33 Pb 1.5534 -6.2623 4.1690 0
M  V30 34 Pb -0.1937 -5.3272 4.4184 0
M  V30 35 Pb 0.1977 -6.6700 4.2837 0
M  V30 36 Pd -1.1911 4.3972 2.2423 0
M  V30 37 Pb -2.1091 4.0051 2.1688 0
M  V30 38 Pb -0.2453 4.7133 2.3897 0
M  V30 39 Pb -1.6277 5.2708 2.4905 0
M  V30 40 Pb -0.8313 3.5051 1.9734 0
M  V30 41 Pd 2.9047 5.9045 -0.6814 0
M  V30 42 Pb 2.7002 6.8156 -0.3421 0
M  V30 43 Pb 3.1169 4.9909 -1.0293 0
M  V30 44 Pb 3.0090 5.6178 0.2684 0
M  V30 45 Pb 2.5456 6.2044 -1.5673 0
M  V30 46 Ag -4.3951 7.0942 -1.1591 0
M  V30 47 Fe -4.7955 4.7749 -1.4641 0
M  V30 48 Ag -4.9637 2.4146 -1.6431 0
M  V30 49 Ag 3.1526 -0.2573 2.6865 0
M  V30 50 Fe 2.3461 -2.2653 3.6640 0
M  V30 51 Ag 1.5244 -4.2870 4.6000 0
M  V30 52 Ag -1.3804 -3.1713 -4.7969 0
M  V30 53 Fe -2.6379 -1.3986 -3.8430 0
M  V30 54 Ag -3.8108 0.3188 -2.6990 0
M  V30 55 Ag 1.0770 -3.7526 -5.1968 0
M  V30 56 Fe 3.3345 -3.8794 -4.5484 0
M  V30 57 Ag 5.1047 -4.5171 -3.1370 0
M  V30 58 Ag -2.2963 8.1734 -2.0337 0
M  V30 59 Fe -0.0780 7.3674 -2.3367 0
M  V30 60 Ag 2.1172 6.4740 -2.1246 0
M  V30 61 Ag -1.8886 9.2018 -0.0338 0
M  V30 62 Fe 0.3994 8.6252 0.0519 0
M  V30 63 Ag 2.4571 7.4786 -0.1146 0
M  V30 64 Ag -3.4992 -6.1471 1.0449 0
M  V30 65 Fe -2.1038 -7.1990 2.6247 0
M  V30 66 Ag -0.2760 -7.2146 4.1115 0
M  V30 67 Ag 4.9091 -0.0644 1.0425 0
M  V30 68 Fe 5.6606 -2.1278 0.1411 0
M  V30 69 Ag 5.9953 -4.2543 -0.8591 0
M  V30 70 Ag 4.7064 -6.2084 -0.1261 0
M  V30 71 Fe 3.5055 -6.4524 1.9086 0
M  V30 72 Ag 2.1731 -6.5575 3.8718 0
M  V30 73 Ba -4.2621 1.7817 0.4444 0
M  V30 74 Ga -3.5081 2.7276 1.2907 0
M  V30 75 Ba -2.7834 3.6743 2.1613 0
M  V30 76 Ba -2.8580 -4.2605 2.2790 0
M  V30 77 Ga -1.8419 -4.6212 3.3096 0
M  V30 78 Ba -0.8565 -4.9548 4.3786 0
M  V30 79 Ba 0.9016 -5.6726 -3.7745 0
M  V30 80 Ga 2.2273 -5.8537 -3.0935 0
M  V30 81 Ba 3.5317 -6.1851 -2.4281 0
M  V30 82 Ba -3.2793 -5.0461 -1.1196 0
M  V30 83 Ga -2.4507 -5.0669 -2.3421 0
M  V30 84 Ba -1.6812 -5.1353 -3.6009 0
M  V30 85 Ba -3.4935 7.9609 1.1311 0
M  V30 86 Ga -2.7856 6.9239 1.9215 0
M  V30 87 Ba -2.0543 5.8718 2.6697 0
M  V30 88 Ba 1.6362 1.0122 1.2609 0
M  V30 89 Ga 0.5568 1.9786 1.5327 0
M  V30 90 Ba -0.6358 2.8153 1.7578 0
M  V30 91 Ba 0.4869 4.8495 2.5342 0
M  V30 92 Ga 1.7264 5.1540 1.7813 0
M  V30 93 Ba 2.9459 5.4671 0.9999 0
M  V30 94 Ba 3.5372 1.5574 -0.2790 0
M  V30 95 Ga 3.4060 2.9422 -0.7716 0
M  V30 96 Ba 3.2855 4.3132 -1.3038 0
M  V30 97 Ba -2.4383 -2.9658 0.2291 0
M  V30 98 Ga -2.7385 -1.5759 -0.1700 0
M  V30 99 Ba -2.8945 -0.1572 -0.5493 0
M  V30 END ATOM
M  V30 BEGIN BOND
M  V30 1 1 1 2
M  V30 2 1 1 3
M  V30 3 1 1 4
M  V30 4 1 1 5
M  V30 5 1 6 7
M  V30 6 1 6 8
M  V30 7 1 6 9
M  V30 8 1 6 10
M  V30 9 1 11 12
M  V30 10 1 11 13
M  V30 11 1 11 14
M  V30 12 1 11 15
M  V30 13 1 16 17
M  V30 14 1 16 18
M  V30 15 1 16 19
M  V30 16 1 16 20
M  V30 17 1 21 22
M  V30 18 1 21 23
M  V30 19 1 21 24
M  V30 20 1 21 25
M  V30 21 1 26 27
M  V30 22 1 26 28
M  V30 23 1 26 29
M  V30 24 1 26 30
M  V30 25 1 31 32
M  V30 26 1 31 33
M  V30 27 1 31 34
M  V30 28 1 31 35
M  V30 29 1 36 37
M  V30 30 1 36 38
M  V30 31 1 36 39
M  V30 32 1 36 40
M  V30 33 1 41 42
M  V30 34 1 41 43
M  V30 35 1 41 44
M  V30 36 1 41 45
M  V30 37 1 46 47
M  V30 38 1 47 48
M  V30 39 1 49 50
M  V30 40 1 50 51
M  V30 41 1 52 53
M  V30 42 1 53 54
M  V30 43 1 55 56
M  V30 44 1 56 57
M  V30 45 1 58 59
M  V30 46 1 59 60
M  V30 47 1 61 62
M  V30 48 1 62 63
M  V30 49 1 64 65
M  V30 50 1 65 66
M  V30 51 1 67 68
M  V30 52 1 68 69
M  V30 53 1 70 71
M  V30 54 1 71 72
M  V30 55 1 73 74
M  V30 56 1 74 75
M  V30 57 1 76 77
M  V30 58 1 77 78
M  V30 59 1 79 80
M  V30 60 1 80 81
M  V30 61 1 82 83
M  V30 62 1 83 84
M  V30 63 1 85 86
M  V30 64 1 86 87
M  V30 65 1 88 89
M  V30 66 1 89 90
M  V30 67 1 91 92
M  V30 68 1 92 93
M  V30 69 1 94 95
M  V30 70 1 95 96
M  V30 71 1 97 98
M  V30 72 1 98 99
M  V30 73 1 2 49
M  V30 74 1 3 94
M  V30 75 1 4 67
M  V30 76 1 5 88
M  V30 77 1 7 46
M  V30 78 1 8 61
M  V30 79 1 9 85
M  V30 80 1 10 58
M  V30 81 1 12 64
M  V30 82 1 13 97
M  V30 83 1 14 82
M  V30 84 1 15 76
M  V30 85 1 17 84
M  V30 86 1 18 55
M  V30 87 1 19 52
M  V30 88 1 20 79
M  V30 89 1 22 48
M  V30 90 1 23 99
M  V30 91 1 24 54
M  V30 92 1 25 73
M  V30 93 1 27 57
M  V30 94 1 28 70
M  V30 95 1 29 69
M  V30 96 1 30 81
M  V30 97 1 32 51
M  V30 98 1 33 72
M  V30 99 1 34 78
M  V30 100 1 35 66
M  V30 101 1 37 75
M  V30 102 1 38 91
M  V30 103 1 39 87
M  V30 104 1 40 90
M  V30 105 1 42 63
M  V30 106 1 43 96
M  V30 107 1 44 93
M  V30 108 1 45 60
M  V30 END BOND
M  V30 END CTAB
M  END

$$$$
