
     RDKit          3D

  0  0  0  0  0  0  0  0  0  0999 V3000
M  V30 BEGIN CTAB
M  V30 COUNTS 99 108 0 0 0
M  V30 BEGIN ATOM
M  V30 1 Pd -2.0823 -4.2375 1.6323 0
M  V30 2 Pb -1.8534 -4.4563 0.6797 0
M  V30 3 Pb -1.4299 -4.9159 1.9647 0
M  V30 4 Pb -2.7519 -3.5604 1.3290 0
M  V30 5 Pb -2.2644 -4.0228 2.5933 0
M  V30 6 Pd -4.8888 3.1142 0.5576 0
M  V30 7 Pb -4.9406 4.1075 0.5209 0
M  V30 8 Pb -3.9809 3.2040 0.9747 0
M  V30 9 Pb -4.8530 2.1147 0.5635 0
M  V30 10 Pb -5.7182 3.0653 0.0049 0
M  V30 11 Pd -1.5482 5.5694 -1.8317 0
M  V30 12 Pb -0.7521 5.1413 -2.2613 0
M  V30 13 Pb -1.3025 5.2029 -0.9311 0
M  V30 14 Pb -1.9188 5.8064 -2.7282 0
M  V30 15 Pb -2.3241 6.0244 -1.4033 0
M  V30 16 Pd -1.0290 -1.8572 -3.4818 0
M  V30 17 Pb -1.0188 -1.0125 -4.0159 0
M  V30 18 Pb -0.0473 -1.9419 -3.6647 0
M  V30 19 Pb -2.0129 -1.7441 -3.3333 0
M  V30 20 Pb -1.0468 -2.7274 -2.9806 0
M  V30 21 Pd 2.3785 2.3226 -0.1774 0
M  V30 22 Pb 2.5197 1.8674 0.7315 0
M  V30 23 Pb 3.3611 2.3461 -0.3648 0
M  V30 24 Pb 2.2143 2.7617 -1.0592 0
M  V30 25 Pb 1.3986 2.3247 -0.0436 0
M  V30 26 Pd -4.3920 2.2899 -4.2027 0
M  V30 27 Pb -4.5112 1.3392 -3.9093 0
M  V30 28 Pb -3.5106 2.0504 -4.6052 0
M  V30 29 Pb -4.2342 3.2415 -4.4776 0
M  V30 30 Pb -5.2629 2.5184 -3.7639 0
M  V30 31 Pd 4.7580 -4.7893 4.3911 0
M  V30 32 Pb 5.1260 -5.2001 3.5602 0
M  V30 33 Pb 4.3394 -4.2884 5.1477 0
M  V30 34 Pb 5.4995 -4.1222 4.3360 0
M  V30 35 Pb 3.9730 -5.4008 4.3353 0
M  V30 36 Pd 0.6131 -1.2010 4.5393 0
M  V30 37 Pb 1.3139 -1.6077 5.1329 0
M  V30 38 Pb -0.1211 -0.7897 4.0205 0
M  V30 39 Pb -0.0877 -1.8040 4.9171 0
M  V30 40 Pb 1.2961 -0.5939 4.0754 0
M  V30 41 Pd 6.3405 -1.2362 -1.3158 0
M  V30 42 Pb 5.7539 -1.3438 -2.1184 0
M  V30 43 Pb 6.8290 -1.1731 -0.4464 0
M  V30 44 Pb 6.3814 -2.2277 -1.2114 0
M  V30 45 Pb 6.2734 -0.2403 -1.3488 0
M  V30 46 Ag 5.3826 -5.3920 2.8857 0
M  V30 47 Fe 5.9475 -4.3634 0.8258 0
M  V30 48 Ag 6.3965 -2.9511 -1.0247 0
M  V30 49 Ag -0.9469 -5.3961 2.2747 0
M  V30 50 Fe 1.1878 -5.7085 3.2603 0
M  V30 51 Ag 3.3617 -5.8087 4.2036 0
M  V30 52 Ag 0.6837 -1.9534 -3.8429 0
M  V30 53 Fe 2.9799 -1.7150 -3.2778 0
M  V30 54 Ag 5.2656 -1.4724 -2.6733 0
M  V30 55 Ag 6.0211 -3.6127 4.1660 0
M  V30 56 Fe 6.7289 -2.3101 2.3127 0
M  V30 57 Ag 7.1091 -1.2040 0.2476 0
M  V30 58 Ag 0.6850 2.2519 0.1196 0
M  V30 59 Fe -0.4462 1.0148 1.7636 0
M  V30 60 Ag -0.6130 -0.4375 3.6012 0
M  V30 61 Ag -3.2668 -3.0621 1.1098 0
M  V30 62 Fe -4.0221 -0.8265 0.8427 0
M  V30 63 Ag -4.8796 1.3656 0.5281 0
M  V30 64 Ba -1.0049 -0.3919 -4.4361 0
M  V30 65 Ga -1.9192 0.7404 -4.6650 0
M  V30 66 Ba -2.8415 1.8679 -4.8856 0
M  V30 67 Ba -0.1482 4.8407 -2.5908 0
M  V30 68 Ga 0.9583 3.9657 -2.1611 0
M  V30 69 Ba 2.0570 3.0897 -1.7136 0
M  V30 70 Ba -2.3359 -3.8877 3.3292 0
M  V30 71 Ga -1.5324 -3.0786 4.2660 0
M  V30 72 Ba -0.6656 -2.2379 5.1141 0
M  V30 73 Ba -2.7521 -1.6438 -3.2422 0
M  V30 74 Ga -3.6745 -0.5097 -3.4578 0
M  V30 75 Ba -4.5909 0.6286 -3.6759 0
M  V30 76 Ba -6.2737 3.0487 -0.4960 0
M  V30 77 Ga -6.1606 2.8575 -1.9540 0
M  V30 78 Ba -5.9016 2.6538 -3.3916 0
M  V30 79 Ba 4.0093 -3.8714 5.6759 0
M  V30 80 Ga 2.9039 -2.8909 5.6401 0
M  V30 81 Ba 1.8018 -1.9061 5.6252 0
M  V30 82 Ba -3.2756 3.3361 1.2060 0
M  V30 83 Ga -2.1983 4.0960 0.5305 0
M  V30 84 Ba -1.2172 4.8793 -0.2558 0
M  V30 85 Ba 4.0846 2.3925 -0.5603 0
M  V30 86 Ga 5.1520 1.4470 -0.9375 0
M  V30 87 Ba 6.2237 0.5062 -1.3145 0
M  V30 88 Ba -4.9372 4.8486 0.4475 0
M  V30 89 Ga -3.9670 5.6695 -0.2845 0
M  V30 90 Ba -2.9097 6.3300 -1.0572 0
M  V30 91 Ba -1.6587 -4.6455 -0.0235 0
M  V30 92 Ga -1.3742 -3.9793 -1.3143 0
M  V30 93 Ba -1.0720 -3.4014 -2.6430 0
M  V30 94 Ba 2.6763 1.5557 1.4238 0
M  V30 95 Ga 2.1618 0.6856 2.5371 0
M  V30 96 Ba 1.8356 -0.1466 3.7463 0
M  V30 97 Ba -2.2760 5.9043 -3.3794 0
M  V30 98 Ga -3.1780 4.9644 -4.0750 0
M  V30 99 Ba -4.0599 3.9457 -4.6801 0
M  V30 END ATOM
M  V30 BEGIN BOND
M  V30 1 1 1 2
M  V30 2 1 1 3
M  V30 3 1 1 4
M  V30 4 1 1 5
M  V30 5 1 6 7
M  V30 6 1 6 8
M  V30 7 1 6 9
M  V30 8 1 6 10
M  V30 9 1 11 12
M  V30 10 1 11 13
M  V30 11 1 11 14
M  V30 12 1 11 15
M  V30 13 1 16 17
M  V30 14 1 16 18
M  V30 15 1 16 19
M  V30 16 1 16 20
M  V30 17 1 21 22
M  V30 18 1 21 23
M  V30 19 1 21 24
M  V30 20 1 21 25
M  V30 21 1 26 27
M  V30 22 1 26 28
M  V30 23 1 26 29
M  V30 24 1 26 30
M  V30 25 1 31 32
M  V30 26 1 31 33
M  V30 27 1 31 34
M  V30 28 1 31 35
M  V30 29 1 36 37
M  V30 30 1 36 38
M  V30 31 1 36 39
M  V30 32 1 36 40
M  V30 33 1 41 42
M  V30 34 1 41 43
M  V30 35 1 41 44
M  V30 36 1 41 45
M  V30 37 1 46 47
M  V30 38 1 47 48
M  V30 39 1 49 50
M  V30 40 1 50 51
M  V30 41 1 52 53
M  V30 42 1 53 54
M  V30 43 1 55 56
M  V30 44 1 56 57
M  V30 45 1 58 59
M  V30 46 1 59 60
M  V30 47 1 61 62
M  V30 48 1 62 63
M  V30 49 1 64 65
M  V30 50 1 65 66
M  V30 51 1 67 68
M  V30 52 1 68 69
M  V30 53 1 70 71
M  V30 54 1 71 72
M  V30 55 1 73 74
M  V30 56 1 74 75
M  V30 57 1 76 77
M  V30 58 1 77 78
M  V30 59 1 79 80
M  V30 60 1 80 81
M  V30 61 1 82 83
M  V30 62 1 83 84
M  V30 63 1 85 86
M  V30 64 1 86 87
M  V30 65 1 88 89
M  V30 66 1 89 90
M  V30 67 1 91 92
M  V30 68 1 92 93
M  V30 69 1 94 95
M  V30 70 1 95 96
M  V30 71 1 97 98
M  V30 72 1 98 99
M  V30 73 1 2 91
M  V30 74 1 3 49
M  V30 75 1 4 61
M  V30 76 1 5 70
M  V30 77 1 7 88
M  V30 78 1 8 82
M  V30 79 1 9 63
M  V30 80 1 10 76
M  V30 81 1 12 67
M  V30 82 1 13 84
M  V30 83 1 14 97
M  V30 84 1 15 90
M  V30 85 1 17 64
M  V30 86 1 18 52
M  V30 87 1 19 73
M  V30 88 1 20 93
M  V30 89 1 22 94
M  V30 90 1 23 85
M  V30 91 1 24 69
M  V30 92 1 25 58
M  V30 93 1 27 75
M  V30 94 1 28 66
M  V30 95 1 29 99
M  V30 96 1 30 78
M  V30 97 1 32 46
M  V30 98 1 33 79
M  V30 99 1 34 55
M  V30 100 1 35 51
M  V30 101 1 37 81
M  V30 102 1 38 60
M  V30 103 1 39 72
M  V30 104 1 40 96
M  V30 105 1 42 54
M  V30 106 1 43 57
M  V30 107 1 44 48
M  V30 108 1 45 87
M  V30 END BOND
M  V30 END CTAB
M  END

$$$$
