
     RDKit          3D

  0  0  0  0  0  0  0  0  0  0999 V3000
M  V30 BEGIN CTAB
M  V30 COUNTS 99 108 0 0 0
M  V30 BEGIN ATOM
M  V30 1 Pd -1.7800 -4.2996 1.0452 0
M  V30 2 Pb -1.7648 -4.1599 2.0414 0
M  V30 3 Pb -2.6815 -3.8580 1.0541 0
M  V30 4 Pb -0.9020 -4.7800 1.0387 0
M  V30 5 Pb -1.7929 -4.4963 0.0603 0
M  V30 6 Pd -6.2587 3.2454 -3.2188 0
M  V30 7 Pb -5.3880 3.4778 -2.7850 0
M  V30 8 Pb -7.1200 2.9405 -3.6221 0
M  V30 9 Pb -5.7649 2.9728 -4.0412 0
M  V30 10 Pb -6.7465 3.3873 -2.3566 0
M  V30 11 Pd 3.7065 4.4866 3.8561 0
M  V30 12 Pb 4.0638 3.7594 4.4384 0
M  V30 13 Pb 3.3269 5.1673 3.2362 0
M  V30 14 Pb 4.6127 4.7222 3.5007 0
M  V30 15 Pb 2.7908 4.1810 4.1276 0
M  V30 16 Pd 6.4946 2.4393 -0.2411 0
M  V30 17 Pb 6.5961 3.2506 0.3414 0
M  V30 18 Pb 6.4103 1.5993 -0.7782 0
M  V30 19 Pb 6.1525 2.9736 -1.0189 0
M  V30 20 Pb 6.8608 1.8671 0.4929 0
M  V30 21 Pd 1.6952 3.7552 -2.8213 0
M  V30 22 Pb 0.7217 3.7232 -2.5874 0
M  V30 23 Pb 1.7430 4.5976 -2.2932 0
M  V30 24 Pb 2.6802 3.8290 -2.9920 0
M  V30 25 Pb 1.6633 2.8639 -3.2771 0
M  V30 26 Pd 5.8195 -4.5117 1.5323 0
M  V30 27 Pb 5.9350 -4.0819 0.6373 0
M  V30 28 Pb 5.6089 -4.8517 2.4448 0
M  V30 29 Pb 5.0884 -5.1035 1.2017 0
M  V30 30 Pb 6.4399 -3.8181 1.8948 0
M  V30 31 Pd 0.8437 -1.9229 5.6360 0
M  V30 32 Pb 0.0267 -2.4373 5.3633 0
M  V30 33 Pb 1.3592 -2.7696 5.7454 0
M  V30 34 Pb 0.4023 -1.0344 5.5008 0
M  V30 35 Pb 1.6711 -1.4130 5.8690 0
M  V30 36 Pd -2.2238 -2.6132 -4.5086 0
M  V30 37 Pb -1.3053 -2.2189 -4.5308 0
M  V30 38 Pb -3.1578 -2.9630 -4.4682 0
M  V30 39 Pb -2.5381 -1.8271 -5.0389 0
M  V30 40 Pb -1.9413 -3.3820 -3.9347 0
M  V30 41 Pd -8.3169 -0.5229 -1.3100 0
M  V30 42 Pb -8.7758 -0.0799 -2.0788 0
M  V30 43 Pb -7.7901 -0.9468 -0.5718 0
M  V30 44 Pb -8.1397 -1.3295 -1.8680 0
M  V30 45 Pb -8.3947 0.3382 -0.8061 0
M  V30 46 Ag -4.7321 3.6105 -2.4459 0
M  V30 47 Fe -2.3565 3.6711 -2.4668 0
M  V30 48 Ag 0.0140 3.7761 -2.3388 0
M  V30 49 Ag 1.6623 2.1745 -3.5767 0
M  V30 50 Fe 0.5351 0.1451 -4.0835 0
M  V30 51 Ag -0.6486 -1.8581 -4.5648 0
M  V30 52 Ag 6.3685 0.9273 -1.1099 0
M  V30 53 Fe 6.1879 -1.4037 -0.6914 0
M  V30 54 Ag 5.9993 -3.6621 0.0196 0
M  V30 55 Ag 2.1287 3.8718 4.3093 0
M  V30 56 Fe 1.0347 1.8349 4.8659 0
M  V30 57 Ag 0.1864 -0.3212 5.4014 0
M  V30 58 Ag 4.2329 3.1651 4.8593 0
M  V30 59 Fe 3.3716 1.0535 5.5149 0
M  V30 60 Ag 2.2795 -0.9963 6.0017 0
M  V30 61 Ag 7.1335 1.3743 0.9883 0
M  V30 62 Fe 7.0824 -0.9012 1.6644 0
M  V30 63 Ag 6.8258 -3.2172 2.1200 0
M  V30 64 Ag -5.3771 2.6727 -4.6050 0
M  V30 65 Fe -4.0567 0.7753 -5.1375 0
M  V30 66 Ag -2.7854 -1.2121 -5.3871 0
M  V30 67 Ag -0.2640 -5.1668 0.9507 0
M  V30 68 Fe 2.1019 -5.3683 0.9747 0
M  V30 69 Ag 4.4725 -5.4917 1.0322 0
M  V30 70 Ag -3.8678 -3.1871 -4.3975 0
M  V30 71 Fe -5.9608 -2.6690 -3.4108 0
M  V30 72 Ag -7.9063 -1.8907 -2.3012 0
M  V30 73 Ag -3.3594 -3.5426 1.1515 0
M  V30 74 Fe -5.3467 -2.4068 0.5066 0
M  V30 75 Ag -7.3644 -1.2764 -0.0478 0
M  V30 76 Ag 5.3271 -5.0474 3.1070 0
M  V30 77 Fe 3.6113 -4.3588 4.5894 0
M  V30 78 Ag 1.8251 -3.3524 5.7782 0
M  V30 79 Ag 3.0647 5.6194 2.7050 0
M  V30 80 Fe 2.3822 5.5987 0.4376 0
M  V30 81 Ag 1.7866 5.1651 -1.8129 0
M  V30 82 Ba -1.8314 -4.0732 2.7894 0
M  V30 83 Ga -1.1610 -3.4376 3.9466 0
M  V30 84 Ba -0.5770 -2.8448 5.1715 0
M  V30 85 Ba 5.9262 3.3331 -1.6418 0
M  V30 86 Ga 4.6577 3.6202 -2.3468 0
M  V30 87 Ba 3.4187 3.9341 -3.0920 0
M  V30 88 Ba -7.1290 3.3942 -1.7104 0
M  V30 89 Ga -7.7954 2.2606 -1.0387 0
M  V30 90 Ba -8.4048 1.0260 -0.5047 0
M  V30 91 Ba -7.7671 2.6519 -3.8628 0
M  V30 92 Ga -8.4835 1.4839 -3.3238 0
M  V30 93 Ba -9.0564 0.3021 -2.6584 0
M  V30 94 Ba 5.2630 4.9028 3.1688 0
M  V30 95 Ga 5.9863 4.3686 1.9940 0
M  V30 96 Ba 6.7001 3.8264 0.8170 0
M  V30 97 Ba -1.7140 -4.7365 -0.6511 0
M  V30 98 Ga -1.7650 -4.2961 -2.0614 0
M  V30 99 Ba -1.7855 -3.9772 -3.5052 0
M  V30 END ATOM
M  V30 BEGIN BOND
M  V30 1 1 1 2
M  V30 2 1 1 3
M  V30 3 1 1 4
M  V30 4 1 1 5
M  V30 5 1 6 7
M  V30 6 1 6 8
M  V30 7 1 6 9
M  V30 8 1 6 10
M  V30 9 1 11 12
M  V30 10 1 11 13
M  V30 11 1 11 14
M  V30 12 1 11 15
M  V30 13 1 16 17
M  V30 14 1 16 18
M  V30 15 1 16 19
M  V30 16 1 16 20
M  V30 17 1 21 22
M  V30 18 1 21 23
M  V30 19 1 21 24
M  V30 20 1 21 25
M  V30 21 1 26 27
M  V30 22 1 26 28
M  V30 23 1 26 29
M  V30 24 1 26 30
M  V30 25 1 31 32
M  V30 26 1 31 33
M  V30 27 1 31 34
M  V30 28 1 31 35
M  V30 29 1 36 37
M  V30 30 1 36 38
M  V30 31 1 36 39
M  V30 32 1 36 40
M  V30 33 1 41 42
M  V30 34 1 41 43
M  V30 35 1 41 44
M  V30 36 1 41 45
M  V30 37 1 46 47
M  V30 38 1 47 48
M  V30 39 1 49 50
M  V30 40 1 50 51
M  V30 41 1 52 53
M  V30 42 1 53 54
M  V30 43 1 55 56
M  V30 44 1 56 57
M  V30 45 1 58 59
M  V30 46 1 59 60
M  V30 47 1 61 62
M  V30 48 1 62 63
M  V30 49 1 64 65
M  V30 50 1 65 66
M  V30 51 1 67 68
M  V30 52 1 68 69
M  V30 53 1 70 71
M  V30 54 1 71 72
M  V30 55 1 73 74
M  V30 56 1 74 75
M  V30 57 1 76 77
M  V30 58 1 77 78
M  V30 59 1 79 80
M  V30 60 1 80 81
M  V30 61 1 82 83
M  V30 62 1 83 84
M  V30 63 1 85 86
M  V30 64 1 86 87
M  V30 65 1 88 89
M  V30 66 1 89 90
M  V30 67 1 91 92
M  V30 68 1 92 93
M  V30 69 1 94 95
M  V30 70 1 95 96
M  V30 71 1 97 98
M  V30 72 1 98 99
M  V30 73 1 2 82
M  V30 74 1 3 73
M  V30 75 1 4 67
M  V30 76 1 5 97
M  V30 77 1 7 46
M  V30 78 1 8 91
M  V30 79 1 9 64
M  V30 80 1 10 88
M  V30 81 1 12 58
M  V30 82 1 13 79
M  V30 83 1 14 94
M  V30 84 1 15 55
M  V30 85 1 17 96
M  V30 86 1 18 52
M  V30 87 1 19 85
M  V30 88 1 20 61
M  V30 89 1 22 48
M  V30 90 1 23 81
M  V30 91 1 24 87
M  V30 92 1 25 49
M  V30 93 1 27 54
M  V30 94 1 28 76
M  V30 95 1 29 69
M  V30 96 1 30 63
M  V30 97 1 32 84
M  V30 98 1 33 78
M  V30 99 1 34 57
M  V30 100 1 35 60
M  V30 101 1 37 51
M  V30 102 1 38 70
M  V30 103 1 39 66
M  V30 104 1 40 99
M  V30 105 1 42 93
M  V30 106 1 43 75
M  V30 107 1 44 72
M  V30 108 1 45 90
M  V30 END BOND
M  V30 END CTAB
M  END

$$$$
