
     RDKit          3D

  0  0  0  0  0  0  0  0  0  0999 V3000
M  V30 BEGIN CTAB
M  V30 COUNTS 99 108 0 0 0
M  V30 BEGIN ATOM
M  V30 1 Pd -0.4903 4.9940 0.3064 0
M  V30 2 Pb -1.1096 4.5618 -0.3500 0
M  V30 3 Pb -1.2194 4.9401 0.9907 0
M  V30 4 Pb 0.1930 5.1513 -0.4099 0
M  V30 5 Pb 0.1428 5.3716 0.9862 0
M  V30 6 Pd -3.1575 -1.9242 3.7725 0
M  V30 7 Pb -2.7774 -1.5837 2.9099 0
M  V30 8 Pb -3.5195 -2.1232 4.6823 0
M  V30 9 Pb -2.2293 -2.0710 4.1044 0
M  V30 10 Pb -4.0831 -1.6745 3.4899 0
M  V30 11 Pd -1.1388 -5.3316 -4.2609 0
M  V30 12 Pb -0.9856 -5.3009 -5.2429 0
M  V30 13 Pb -1.2399 -5.3377 -3.2664 0
M  V30 14 Pb -0.3639 -5.9498 -4.1419 0
M  V30 15 Pb -1.8317 -4.5947 -4.3604 0
M  V30 16 Pd 5.1105 -3.5429 -1.6893 0
M  V30 17 Pb 4.7954 -4.4506 -1.9633 0
M  V30 18 Pb 4.9465 -3.2081 -2.6164 0
M  V30 19 Pb 5.1658 -3.8134 -0.7302 0
M  V30 20 Pb 5.3285 -2.6015 -1.4363 0
M  V30 21 Pd 1.7345 -1.8990 1.5896 0
M  V30 22 Pb 0.9112 -1.3734 1.3725 0
M  V30 23 Pb 1.1644 -2.7087 1.4605 0
M  V30 24 Pb 2.5371 -2.4674 1.7815 0
M  V30 25 Pb 2.3068 -1.0743 1.6264 0
M  V30 26 Pd 2.5070 2.7634 -4.0666 0
M  V30 27 Pb 2.7370 1.8979 -4.5117 0
M  V30 28 Pb 1.8527 2.9847 -4.7917 0
M  V30 29 Pb 2.3120 3.6247 -3.5968 0
M  V30 30 Pb 3.1590 2.5098 -3.3527 0
M  V30 31 Pd -1.8876 0.3204 -5.7915 0
M  V30 32 Pb -2.2189 0.8503 -5.0105 0
M  V30 33 Pb -1.4219 1.1440 -6.1171 0
M  V30 34 Pb -2.3240 -0.5311 -5.4422 0
M  V30 35 Pb -1.5782 -0.1883 -6.5879 0
M  V30 36 Pd 2.1473 2.7496 4.3481 0
M  V30 37 Pb 2.6893 2.4216 3.5764 0
M  V30 38 Pb 1.5525 3.0209 5.1050 0
M  V30 39 Pb 2.0760 1.8016 4.6489 0
M  V30 40 Pb 2.1568 3.6882 3.9972 0
M  V30 41 Pd -4.8275 1.7535 5.8877 0
M  V30 42 Pb -4.8397 0.9122 6.4286 0
M  V30 43 Pb -4.7438 2.5482 5.2889 0
M  V30 44 Pb -4.0982 2.1490 6.4437 0
M  V30 45 Pb -5.4659 1.3189 5.2530 0
M  V30 46 Ag -1.5863 4.2052 -0.8073 0
M  V30 47 Fe -2.0161 2.7441 -2.6305 0
M  V30 48 Ag -2.4649 1.2857 -4.4512 0
M  V30 49 Ag 4.7604 -2.8813 -3.2644 0
M  V30 50 Fe 3.8660 -0.8726 -4.1608 0
M  V30 51 Ag 2.9612 1.2340 -4.7792 0
M  V30 52 Ag -0.8787 -5.1130 -5.9510 0
M  V30 53 Fe -1.0058 -3.0064 -6.9983 0
M  V30 54 Ag -1.3716 -0.6810 -7.1015 0
M  V30 55 Ag 5.4116 -1.8695 -1.3026 0
M  V30 56 Fe 4.6167 0.2624 -1.9795 0
M  V30 57 Ag 3.6483 2.2475 -2.8492 0
M  V30 58 Ag 0.2731 -6.3131 -3.9937 0
M  V30 59 Fe 2.4371 -5.8886 -3.1178 0
M  V30 60 Ag 4.4743 -5.0818 -2.2069 0
M  V30 61 Ag -1.5286 -2.0743 4.3607 0
M  V30 62 Fe 0.3229 -0.6265 4.6659 0
M  V30 63 Ag 1.9573 1.0835 4.8157 0
M  V30 64 Ag 1.0617 3.1628 5.6541 0
M  V30 65 Fe -1.1934 2.8765 6.3396 0
M  V30 66 Ag -3.4913 2.4528 6.7600 0
M  V30 67 Ag -1.8033 4.9503 1.4639 0
M  V30 68 Fe -3.2077 4.0349 3.1469 0
M  V30 69 Ag -4.6149 3.1265 4.8312 0
M  V30 70 Ag -1.2387 -5.3445 -2.5167 0
M  V30 71 Fe -0.3275 -4.3774 -0.5493 0
M  V30 72 Ag 0.6994 -3.2672 1.2808 0
M  V30 73 Ba -2.4732 -1.2569 2.3039 0
M  V30 74 Ga -1.1113 -1.1517 1.7397 0
M  V30 75 Ba 0.2559 -1.0572 1.1865 0
M  V30 76 Ba 2.7561 -0.4685 1.6040 0
M  V30 77 Ga 2.9093 0.8225 2.3063 0
M  V30 78 Ba 3.0658 2.1140 3.0069 0
M  V30 79 Ba 5.1389 -3.9508 0.0048 0
M  V30 80 Ga 4.1637 -3.4568 0.9953 0
M  V30 81 Ba 3.1357 -2.9071 1.8995 0
M  V30 82 Ba -2.3483 -4.0323 -4.4264 0
M  V30 83 Ga -2.4447 -2.5925 -4.8226 0
M  V30 84 Ba -2.6825 -1.1614 -5.1890 0
M  V30 85 Ba -4.7733 -1.4154 3.3560 0
M  V30 86 Ga -5.4128 -0.2528 3.9975 0
M  V30 87 Ba -5.8636 0.9319 4.7494 0
M  V30 88 Ba -3.8002 -2.1562 5.3762 0
M  V30 89 Ga -4.3353 -1.0214 6.1504 0
M  V30 90 Ba -4.8241 0.2342 6.7493 0
M  V30 91 Ba 0.6852 5.3471 -0.9443 0
M  V30 92 Ga 1.4228 4.7642 -2.0831 0
M  V30 93 Ba 2.2013 4.2745 -3.2386 0
M  V30 94 Ba 0.6317 5.6320 1.4960 0
M  V30 95 Ga 1.3864 5.0202 2.6107 0
M  V30 96 Ba 2.1308 4.3872 3.7204 0
M  V30 97 Ba 1.3623 3.1316 -5.3417 0
M  V30 98 Ga 0.1489 2.4590 -5.8472 0
M  V30 99 Ba -1.0612 1.7662 -6.3326 0
M  V30 END ATOM
M  V30 BEGIN BOND
M  V30 1 1 1 2
M  V30 2 1 1 3
M  V30 3 1 1 4
M  V30 4 1 1 5
M  V30 5 1 6 7
M  V30 6 1 6 8
M  V30 7 1 6 9
M  V30 8 1 6 10
M  V30 9 1 11 12
M  V30 10 1 11 13
M  V30 11 1 11 14
M  V30 12 1 11 15
M  V30 13 1 16 17
M  V30 14 1 16 18
M  V30 15 1 16 19
M  V30 16 1 16 20
M  V30 17 1 21 22
M  V30 18 1 21 23
M  V30 19 1 21 24
M  V30 20 1 21 25
M  V30 21 1 26 27
M  V30 22 1 26 28
M  V30 23 1 26 29
M  V30 24 1 26 30
M  V30 25 1 31 32
M  V30 26 1 31 33
M  V30 27 1 31 34
M  V30 28 1 31 35
M  V30 29 1 36 37
M  V30 30 1 36 38
M  V30 31 1 36 39
M  V30 32 1 36 40
M  V30 33 1 41 42
M  V30 34 1 41 43
M  V30 35 1 41 44
M  V30 36 1 41 45
M  V30 37 1 46 47
M  V30 38 1 47 48
M  V30 39 1 49 50
M  V30 40 1 50 51
M  V30 41 1 52 53
M  V30 42 1 53 54
M  V30 43 1 55 56
M  V30 44 1 56 57
M  V30 45 1 58 59
M  V30 46 1 59 60
M  V30 47 1 61 62
M  V30 48 1 62 63
M  V30 49 1 64 65
M  V30 50 1 65 66
M  V30 51 1 67 68
M  V30 52 1 68 69
M  V30 53 1 70 71
M  V30 54 1 71 72
M  V30 55 1 73 74
M  V30 56 1 74 75
M  V30 57 1 76 77
M  V30 58 1 77 78
M  V30 59 1 79 80
M  V30 60 1 80 81
M  V30 61 1 82 83
M  V30 62 1 83 84
M  V30 63 1 85 86
M  V30 64 1 86 87
M  V30 65 1 88 89
M  V30 66 1 89 90
M  V30 67 1 91 92
M  V30 68 1 92 93
M  V30 69 1 94 95
M  V30 70 1 95 96
M  V30 71 1 97 98
M  V30 72 1 98 99
M  V30 73 1 2 46
M  V30 74 1 3 67
M  V30 75 1 4 91
M  V30 76 1 5 94
M  V30 77 1 7 73
M  V30 78 1 8 88
M  V30 79 1 9 61
M  V30 80 1 10 85
M  V30 81 1 12 52
M  V30 82 1 13 70
M  V30 83 1 14 58
M  V30 84 1 15 82
M  V30 85 1 17 60
M  V30 86 1 18 49
M  V30 87 1 19 79
M  V30 88 1 20 55
M  V30 89 1 22 75
M  V30 90 1 23 72
M  V30 91 1 24 81
M  V30 92 1 25 76
M  V30 93 1 27 51
M  V30 94 1 28 97
M  V30 95 1 29 93
M  V30 96 1 30 57
M  V30 97 1 32 48
M  V30 98 1 33 99
M  V30 99 1 34 84
M  V30 100 1 35 54
M  V30 101 1 37 78
M  V30 102 1 38 64
M  V30 103 1 39 63
M  V30 104 1 40 96
M  V30 105 1 42 90
M  V30 106 1 43 69
M  V30 107 1 44 66
M  V30 108 1 45 87
M  V30 END BOND
M  V30 END CTAB
M  END

$$$$
