
     RDKit          3D

  0  0  0  0  0  0  0  0  0  0999 V3000
M  V30 BEGIN CTAB
M  V30 COUNTS 99 108 0 0 0
M  V30 BEGIN ATOM
M  V30 1 Pd 0.9262 -5.4538 6.3711 0
M  V30 2 Pb 0.0743 -5.8909 6.0816 0
M  V30 3 Pb 1.3951 -5.9047 5.6205 0
M  V30 4 Pb 0.4648 -4.8532 7.0200 0
M  V30 5 Pb 1.7640 -4.9464 6.5691 0
M  V30 6 Pd -3.6855 -5.4569 0.3677 0
M  V30 7 Pb -3.4757 -5.8759 1.2541 0
M  V30 8 Pb -4.1096 -4.6657 0.7935 0
M  V30 9 Pb -3.1121 -6.1189 -0.1116 0
M  V30 10 Pb -3.9215 -4.9856 -0.4792 0
M  V30 11 Pd 2.7211 -3.8911 -0.9469 0
M  V30 12 Pb 2.9032 -3.5983 -1.8799 0
M  V30 13 Pb 2.6696 -4.3174 -0.0462 0
M  V30 14 Pb 2.3039 -4.7317 -1.2903 0
M  V30 15 Pb 3.0157 -3.0039 -0.5628 0
M  V30 16 Pd 1.8408 1.3311 5.8259 0
M  V30 17 Pb 2.3642 1.7755 5.0900 0
M  V30 18 Pb 1.0063 1.8246 5.6023 0
M  V30 19 Pb 1.3142 0.8234 6.5086 0
M  V30 20 Pb 2.6031 0.7235 6.0373 0
M  V30 21 Pd -3.1489 1.4777 -2.7375 0
M  V30 22 Pb -3.1692 2.4607 -2.9655 0
M  V30 23 Pb -2.2363 1.9029 -2.7640 0
M  V30 24 Pb -3.0657 1.2587 -3.7044 0
M  V30 25 Pb -3.6284 0.6042 -2.6497 0
M  V30 26 Pd -2.4543 2.1368 0.0997 0
M  V30 27 Pb -2.2550 3.1028 0.1961 0
M  V30 28 Pb -2.8068 1.2012 0.1352 0
M  V30 29 Pb -2.6608 2.2068 1.0690 0
M  V30 30 Pb -2.1171 2.1415 -0.8582 0
M  V30 31 Pd -0.4846 6.3438 -2.3872 0
M  V30 32 Pb -0.0160 6.3276 -3.2627 0
M  V30 33 Pb -1.3453 6.1116 -2.8392 0
M  V30 34 Pb 0.3676 6.3730 -1.8697 0
M  V30 35 Pb -0.9465 6.3555 -1.5161 0
M  V30 36 Pd 2.4461 1.1056 -6.2159 0
M  V30 37 Pb 2.8842 0.2243 -6.3257 0
M  V30 38 Pb 1.7501 1.5997 -5.6667 0
M  V30 39 Pb 1.6464 0.8203 -6.7309 0
M  V30 40 Pb 2.3007 2.0635 -6.4345 0
M  V30 41 Pd 1.9953 2.1672 0.0926 0
M  V30 42 Pb 1.9437 3.1724 0.0412 0
M  V30 43 Pb 2.4913 2.2765 0.9631 0
M  V30 44 Pb 1.4707 2.1370 -0.7710 0
M  V30 45 Pb 2.2661 1.1876 0.1051 0
M  V30 46 Ag -4.1491 -4.5361 -1.0327 0
M  V30 47 Fe -4.0561 -2.3243 -1.8928 0
M  V30 48 Ag -3.9154 -0.0891 -2.6835 0
M  V30 49 Ag -2.5774 -6.4925 -0.4778 0
M  V30 50 Fe -0.3144 -6.1337 -1.0937 0
M  V30 51 Ag 1.8875 -5.3300 -1.4618 0
M  V30 52 Ag 2.3468 -4.4855 6.6629 0
M  V30 53 Fe 2.9244 -2.1906 6.4957 0
M  V30 54 Ag 3.0620 0.1607 6.2137 0
M  V30 55 Ag 0.2084 -4.2762 7.4198 0
M  V30 56 Fe 0.4402 -1.9148 7.3749 0
M  V30 57 Ag 0.9347 0.3715 6.9720 0
M  V30 58 Ag -4.3400 -3.9834 0.9850 0
M  V30 59 Fe -3.7369 -1.7081 0.6644 0
M  V30 60 Ag -3.1709 0.5770 0.3467 0
M  V30 61 Ag -0.5435 -6.1952 5.7831 0
M  V30 62 Fe -1.9721 -6.2213 3.8835 0
M  V30 63 Ag -3.3304 -6.1649 1.9336 0
M  V30 64 Ag -2.9407 1.0724 -4.4139 0
M  V30 65 Fe -1.1618 0.7799 -5.9424 0
M  V30 66 Ag 0.9621 0.6714 -6.9721 0
M  V30 67 Ag 0.3154 6.2544 -3.9232 0
M  V30 68 Fe 1.2911 4.6518 -5.3621 0
M  V30 69 Ag 2.1857 2.7923 -6.5165 0
M  V30 70 Ag -1.8204 2.2752 -1.5523 0
M  V30 71 Fe -0.2926 2.0272 -3.3830 0
M  V30 72 Ag 1.1607 1.8981 -5.2796 0
M  V30 73 Ag 1.7389 -6.1315 5.0015 0
M  V30 74 Fe 2.2092 -5.4495 2.7793 0
M  V30 75 Ag 2.6790 -4.7566 0.5605 0
M  V30 76 Ag 0.3265 2.0779 5.4312 0
M  V30 77 Fe -1.2941 2.2705 3.7154 0
M  V30 78 Ag -2.6845 2.3403 1.8001 0
M  V30 79 Ag 3.0922 -3.4527 -2.5867 0
M  V30 80 Fe 3.1892 -2.0502 -4.4907 0
M  V30 81 Ag 3.1490 -0.4613 -6.2434 0
M  V30 82 Ba -1.5156 2.1292 -2.8369 0
M  V30 83 Ga -0.2453 2.1628 -2.0585 0
M  V30 84 Ba 1.0994 2.2497 -1.4261 0
M  V30 85 Ba 0.9515 6.3013 -1.4059 0
M  V30 86 Ga 1.4871 5.1067 -0.7132 0
M  V30 87 Ba 2.0312 3.9245 -0.0061 0
M  V30 88 Ba 3.2250 -2.3533 -0.2291 0
M  V30 89 Ga 2.8306 -0.9212 -0.0965 0
M  V30 90 Ba 2.6461 0.5282 0.1979 0
M  V30 91 Ba -3.2606 3.1802 -3.1908 0
M  V30 92 Ga -2.6031 4.5080 -3.1525 0
M  V30 93 Ba -1.9838 5.8548 -3.1390 0
M  V30 94 Ba -2.2005 3.8223 0.3766 0
M  V30 95 Ga -1.7428 5.0757 -0.2165 0
M  V30 96 Ba -1.2642 6.2981 -0.8554 0
M  V30 97 Ba 2.7901 2.0795 4.5438 0
M  V30 98 Ga 2.7838 2.2207 3.0665 0
M  V30 99 Ba 2.8792 2.4170 1.5987 0
M  V30 END ATOM
M  V30 BEGIN BOND
M  V30 1 1 1 2
M  V30 2 1 1 3
M  V30 3 1 1 4
M  V30 4 1 1 5
M  V30 5 1 6 7
M  V30 6 1 6 8
M  V30 7 1 6 9
M  V30 8 1 6 10
M  V30 9 1 11 12
M  V30 10 1 11 13
M  V30 11 1 11 14
M  V30 12 1 11 15
M  V30 13 1 16 17
M  V30 14 1 16 18
M  V30 15 1 16 19
M  V30 16 1 16 20
M  V30 17 1 21 22
M  V30 18 1 21 23
M  V30 19 1 21 24
M  V30 20 1 21 25
M  V30 21 1 26 27
M  V30 22 1 26 28
M  V30 23 1 26 29
M  V30 24 1 26 30
M  V30 25 1 31 32
M  V30 26 1 31 33
M  V30 27 1 31 34
M  V30 28 1 31 35
M  V30 29 1 36 37
M  V30 30 1 36 38
M  V30 31 1 36 39
M  V30 32 1 36 40
M  V30 33 1 41 42
M  V30 34 1 41 43
M  V30 35 1 41 44
M  V30 36 1 41 45
M  V30 37 1 46 47
M  V30 38 1 47 48
M  V30 39 1 49 50
M  V30 40 1 50 51
M  V30 41 1 52 53
M  V30 42 1 53 54
M  V30 43 1 55 56
M  V30 44 1 56 57
M  V30 45 1 58 59
M  V30 46 1 59 60
M  V30 47 1 61 62
M  V30 48 1 62 63
M  V30 49 1 64 65
M  V30 50 1 65 66
M  V30 51 1 67 68
M  V30 52 1 68 69
M  V30 53 1 70 71
M  V30 54 1 71 72
M  V30 55 1 73 74
M  V30 56 1 74 75
M  V30 57 1 76 77
M  V30 58 1 77 78
M  V30 59 1 79 80
M  V30 60 1 80 81
M  V30 61 1 82 83
M  V30 62 1 83 84
M  V30 63 1 85 86
M  V30 64 1 86 87
M  V30 65 1 88 89
M  V30 66 1 89 90
M  V30 67 1 91 92
M  V30 68 1 92 93
M  V30 69 1 94 95
M  V30 70 1 95 96
M  V30 71 1 97 98
M  V30 72 1 98 99
M  V30 73 1 2 61
M  V30 74 1 3 73
M  V30 75 1 4 55
M  V30 76 1 5 52
M  V30 77 1 7 63
M  V30 78 1 8 58
M  V30 79 1 9 49
M  V30 80 1 10 46
M  V30 81 1 12 79
M  V30 82 1 13 75
M  V30 83 1 14 51
M  V30 84 1 15 88
M  V30 85 1 17 97
M  V30 86 1 18 76
M  V30 87 1 19 57
M  V30 88 1 20 54
M  V30 89 1 22 91
M  V30 90 1 23 82
M  V30 91 1 24 64
M  V30 92 1 25 48
M  V30 93 1 27 94
M  V30 94 1 28 60
M  V30 95 1 29 78
M  V30 96 1 30 70
M  V30 97 1 32 67
M  V30 98 1 33 93
M  V30 99 1 34 85
M  V30 100 1 35 96
M  V30 101 1 37 81
M  V30 102 1 38 72
M  V30 103 1 39 66
M  V30 104 1 40 69
M  V30 105 1 42 87
M  V30 106 1 43 99
M  V30 107 1 44 84
M  V30 108 1 45 90
M  V30 END BOND
M  V30 END CTAB
M  END

$$$$
