
     RDKit          3D

  0  0  0  0  0  0  0  0  0  0999 V3000
M  V30 BEGIN CTAB
M  V30 COUNTS 99 108 0 0 0
M  V30 BEGIN ATOM
M  V30 1 Pd 2.1857 -3.2555 -2.0125 0
M  V30 2 Pb 1.9386 -4.1687 -2.3526 0
M  V30 3 Pb 2.4491 -2.3593 -1.6595 0
M  V30 4 Pb 2.9103 -3.1443 -2.6941 0
M  V30 5 Pb 1.4896 -3.3118 -1.2957 0
M  V30 6 Pd 3.6066 3.3578 6.7298 0
M  V30 7 Pb 2.8405 3.8639 6.3382 0
M  V30 8 Pb 4.2441 3.8331 6.1230 0
M  V30 9 Pb 2.9779 2.7741 7.2419 0
M  V30 10 Pb 4.3726 2.8239 7.0794 0
M  V30 11 Pd -6.4033 -0.7377 -2.7865 0
M  V30 12 Pb -6.1810 -1.6737 -2.5139 0
M  V30 13 Pb -6.5544 -0.4831 -1.8356 0
M  V30 14 Pb -6.5599 0.2173 -3.0454 0
M  V30 15 Pb -6.1988 -1.0203 -3.7237 0
M  V30 16 Pd -3.1340 3.4303 -2.6800 0
M  V30 17 Pb -4.1189 3.3636 -2.8549 0
M  V30 18 Pb -2.1387 3.4435 -2.5485 0
M  V30 19 Pb -3.2958 3.8903 -1.8025 0
M  V30 20 Pb -2.9524 3.0422 -3.5806 0
M  V30 21 Pd -3.1554 2.9044 3.0533 0
M  V30 22 Pb -2.4108 3.4616 3.4181 0
M  V30 23 Pb -3.9287 2.3713 2.7188 0
M  V30 24 Pb -3.2955 3.5654 2.3132 0
M  V30 25 Pb -3.0294 2.2406 3.7924 0
M  V30 26 Pd 2.4129 0.0273 -5.9467 0
M  V30 27 Pb 2.3862 0.7077 -5.2099 0
M  V30 28 Pb 2.3427 -0.7006 -6.6230 0
M  V30 29 Pb 3.1852 -0.4703 -5.5538 0
M  V30 30 Pb 1.5695 0.4351 -6.2865 0
M  V30 31 Pd -1.6253 -5.4956 -5.1912 0
M  V30 32 Pb -0.8791 -5.9049 -4.6639 0
M  V30 33 Pb -0.9946 -5.3237 -5.9435 0
M  V30 34 Pb -2.3415 -4.9826 -5.6653 0
M  V30 35 Pb -2.2626 -5.5793 -4.4269 0
M  V30 36 Pd 0.5907 -0.8628 5.0907 0
M  V30 37 Pb -0.3289 -0.4905 5.2312 0
M  V30 38 Pb 1.4980 -1.2725 4.9587 0
M  V30 39 Pb 0.8673 -0.4021 5.9395 0
M  V30 40 Pb 0.2868 -1.3436 4.2652 0
M  V30 41 Pd 5.5973 0.6408 3.6610 0
M  V30 42 Pb 5.8738 1.5997 3.5933 0
M  V30 43 Pb 5.1710 0.6785 2.7586 0
M  V30 44 Pb 5.2189 -0.2719 3.8079 0
M  V30 45 Pb 5.9902 0.6165 4.5774 0
M  V30 46 Ag 2.2662 4.2214 6.0183 0
M  V30 47 Fe 0.1978 4.0759 4.8637 0
M  V30 48 Ag -1.8679 3.8867 3.7105 0
M  V30 49 Ag -1.3859 3.3983 -2.5269 0
M  V30 50 Fe 0.5140 2.3636 -3.5200 0
M  V30 51 Ag 2.2539 1.2089 -4.6625 0
M  V30 52 Ag -5.9900 -1.3200 -4.3787 0
M  V30 53 Fe -4.4870 -2.9063 -5.3097 0
M  V30 54 Ag -2.8798 -4.5378 -5.9403 0
M  V30 55 Ag -5.9517 -2.3703 -2.3585 0
M  V30 56 Fe -4.4167 -4.0602 -3.0090 0
M  V30 57 Ag -2.7820 -5.5392 -3.8894 0
M  V30 58 Ag -2.7467 2.7868 -4.2520 0
M  V30 59 Fe -0.9952 1.7560 -5.4731 0
M  V30 60 Ag 0.8971 0.7145 -6.4505 0
M  V30 61 Ag 0.9925 -3.3014 -0.7328 0
M  V30 62 Fe 0.4989 -2.5299 1.4606 0
M  V30 63 Ag 0.0670 -1.7262 3.6557 0
M  V30 64 Ag 2.6732 -1.6970 -1.3920 0
M  V30 65 Fe 3.7467 -0.4731 0.3350 0
M  V30 66 Ag 4.8292 0.6978 2.0928 0
M  V30 67 Ag 2.2215 -1.3052 -7.0415 0
M  V30 68 Fe 0.9313 -3.2900 -6.9619 0
M  V30 69 Ag -0.5131 -5.1014 -6.4681 0
M  V30 70 Ag -6.6222 -0.2814 -1.1208 0
M  V30 71 Fe -5.6110 0.8397 0.7070 0
M  V30 72 Ag -4.5174 1.9827 2.4728 0
M  V30 73 Ba 1.7626 -4.8663 -2.5822 0
M  V30 74 Ga 0.7303 -5.5103 -3.4245 0
M  V30 75 Ba -0.2971 -6.1641 -4.2652 0
M  V30 76 Ba -2.9643 1.7403 4.3490 0
M  V30 77 Ga -1.9651 0.7662 4.8334 0
M  V30 78 Ba -1.0183 -0.2284 5.3774 0
M  V30 79 Ba -3.4182 4.2901 -1.1754 0
M  V30 80 Ga -3.4039 4.1315 0.2946 0
M  V30 81 Ba -3.4169 4.0734 1.7722 0
M  V30 82 Ba 4.9535 2.3920 7.2608 0
M  V30 83 Ga 5.6681 1.4840 6.3549 0
M  V30 84 Ba 6.2292 0.6508 5.2840 0
M  V30 85 Ba 4.7365 4.0895 5.6184 0
M  V30 86 Ga 5.4293 3.2970 4.5846 0
M  V30 87 Ba 6.0145 2.3358 3.6303 0
M  V30 88 Ba -6.6549 0.9491 -3.1908 0
M  V30 89 Ga -5.7628 2.1256 -3.1122 0
M  V30 90 Ba -4.8478 3.2836 -3.0246 0
M  V30 91 Ba 2.5288 2.2799 7.5827 0
M  V30 92 Ga 1.7706 1.1127 7.0846 0
M  V30 93 Ba 1.0113 -0.0577 6.5955 0
M  V30 94 Ba 3.4736 -2.9785 -3.1630 0
M  V30 95 Ga 3.6282 -1.9653 -4.2256 0
M  V30 96 Ba 3.7074 -0.9318 -5.2768 0
M  V30 97 Ba 2.1527 -1.6246 4.8306 0
M  V30 98 Ga 3.5216 -1.2746 4.3975 0
M  V30 99 Ba 4.8917 -0.9271 3.9664 0
M  V30 END ATOM
M  V30 BEGIN BOND
M  V30 1 1 1 2
M  V30 2 1 1 3
M  V30 3 1 1 4
M  V30 4 1 1 5
M  V30 5 1 6 7
M  V30 6 1 6 8
M  V30 7 1 6 9
M  V30 8 1 6 10
M  V30 9 1 11 12
M  V30 10 1 11 13
M  V30 11 1 11 14
M  V30 12 1 11 15
M  V30 13 1 16 17
M  V30 14 1 16 18
M  V30 15 1 16 19
M  V30 16 1 16 20
M  V30 17 1 21 22
M  V30 18 1 21 23
M  V30 19 1 21 24
M  V30 20 1 21 25
M  V30 21 1 26 27
M  V30 22 1 26 28
M  V30 23 1 26 29
M  V30 24 1 26 30
M  V30 25 1 31 32
M  V30 26 1 31 33
M  V30 27 1 31 34
M  V30 28 1 31 35
M  V30 29 1 36 37
M  V30 30 1 36 38
M  V30 31 1 36 39
M  V30 32 1 36 40
M  V30 33 1 41 42
M  V30 34 1 41 43
M  V30 35 1 41 44
M  V30 36 1 41 45
M  V30 37 1 46 47
M  V30 38 1 47 48
M  V30 39 1 49 50
M  V30 40 1 50 51
M  V30 41 1 52 53
M  V30 42 1 53 54
M  V30 43 1 55 56
M  V30 44 1 56 57
M  V30 45 1 58 59
M  V30 46 1 59 60
M  V30 47 1 61 62
M  V30 48 1 62 63
M  V30 49 1 64 65
M  V30 50 1 65 66
M  V30 51 1 67 68
M  V30 52 1 68 69
M  V30 53 1 70 71
M  V30 54 1 71 72
M  V30 55 1 73 74
M  V30 56 1 74 75
M  V30 57 1 76 77
M  V30 58 1 77 78
M  V30 59 1 79 80
M  V30 60 1 80 81
M  V30 61 1 82 83
M  V30 62 1 83 84
M  V30 63 1 85 86
M  V30 64 1 86 87
M  V30 65 1 88 89
M  V30 66 1 89 90
M  V30 67 1 91 92
M  V30 68 1 92 93
M  V30 69 1 94 95
M  V30 70 1 95 96
M  V30 71 1 97 98
M  V30 72 1 98 99
M  V30 73 1 2 73
M  V30 74 1 3 64
M  V30 75 1 4 94
M  V30 76 1 5 61
M  V30 77 1 7 46
M  V30 78 1 8 85
M  V30 79 1 9 91
M  V30 80 1 10 82
M  V30 81 1 12 55
M  V30 82 1 13 70
M  V30 83 1 14 88
M  V30 84 1 15 52
M  V30 85 1 17 90
M  V30 86 1 18 49
M  V30 87 1 19 79
M  V30 88 1 20 58
M  V30 89 1 22 48
M  V30 90 1 23 72
M  V30 91 1 24 81
M  V30 92 1 25 76
M  V30 93 1 27 51
M  V30 94 1 28 67
M  V30 95 1 29 96
M  V30 96 1 30 60
M  V30 97 1 32 75
M  V30 98 1 33 69
M  V30 99 1 34 54
M  V30 100 1 35 57
M  V30 101 1 37 78
M  V30 102 1 38 97
M  V30 103 1 39 93
M  V30 104 1 40 63
M  V30 105 1 42 87
M  V30 106 1 43 66
M  V30 107 1 44 99
M  V30 108 1 45 84
M  V30 END BOND
M  V30 END CTAB
M  END

$$$$
