
     RDKit          3D

  0  0  0  0  0  0  0  0  0  0999 V3000
M  V30 BEGIN CTAB
M  V30 COUNTS 99 108 0 0 0
M  V30 BEGIN ATOM
M  V30 1 Pd 2.1171 3.9677 -2.1636 0
M  V30 2 Pb 1.4382 3.6963 -2.8481 0
M  V30 3 Pb 2.8138 3.4891 -2.7038 0
M  V30 4 Pb 1.4392 4.5005 -1.6533 0
M  V30 5 Pb 2.7890 4.1847 -1.4544 0
M  V30 6 Pd 5.2805 -3.6176 -0.0609 0
M  V30 7 Pb 4.4333 -3.1231 0.1368 0
M  V30 8 Pb 4.9568 -3.7608 -0.9989 0
M  V30 9 Pb 5.6504 -3.4509 0.8576 0
M  V30 10 Pb 6.1489 -4.0302 -0.3315 0
M  V30 11 Pd -6.0681 -3.2586 -1.9173 0
M  V30 12 Pb -6.9585 -2.9394 -2.2201 0
M  V30 13 Pb -5.1886 -3.6172 -1.5996 0
M  V30 14 Pb -6.4661 -3.4093 -1.0147 0
M  V30 15 Pb -5.6617 -2.9415 -2.7958 0
M  V30 16 Pd -5.9829 0.0617 4.8736 0
M  V30 17 Pb -6.4457 -0.5699 4.2509 0
M  V30 18 Pb -5.4995 0.6519 5.5089 0
M  V30 19 Pb -5.5190 -0.7319 5.2623 0
M  V30 20 Pb -6.3372 0.8884 4.3917 0
M  V30 21 Pd 0.1368 -2.9849 2.7853 0
M  V30 22 Pb 0.7701 -2.6803 2.0744 0
M  V30 23 Pb -0.3933 -3.4833 2.0981 0
M  V30 24 Pb -0.5312 -3.2154 3.4919 0
M  V30 25 Pb 0.6582 -2.4392 3.4392 0
M  V30 26 Pd -4.4059 4.9555 1.9266 0
M  V30 27 Pb -4.0353 4.9923 2.8469 0
M  V30 28 Pb -4.7688 4.9827 0.9951 0
M  V30 29 Pb -3.5935 5.4185 1.5737 0
M  V30 30 Pb -5.1857 4.3958 2.2759 0
M  V30 31 Pd -5.0026 1.6193 -4.7472 0
M  V30 32 Pb -4.0158 1.7820 -4.8029 0
M  V30 33 Pb -5.1447 2.5534 -4.4308 0
M  V30 34 Pb -4.8867 0.6172 -4.8810 0
M  V30 35 Pb -5.9882 1.4986 -4.7517 0
M  V30 36 Pd 6.5219 0.7110 2.9020 0
M  V30 37 Pb 5.7312 0.6073 3.5026 0
M  V30 38 Pb 7.2876 0.7883 2.2652 0
M  V30 39 Pb 6.7132 -0.2596 3.0530 0
M  V30 40 Pb 6.2567 1.6443 2.6625 0
M  V30 41 Pd 7.4446 -1.5696 -3.6463 0
M  V30 42 Pb 6.6950 -2.1563 -3.9442 0
M  V30 43 Pb 6.9612 -0.7582 -3.9776 0
M  V30 44 Pb 8.1103 -0.9904 -3.1841 0
M  V30 45 Pb 7.8788 -2.3748 -3.2424 0
M  V30 46 Ag 0.9594 3.4454 -3.3704 0
M  V30 47 Fe -1.1832 2.7015 -4.0814 0
M  V30 48 Ag -3.2866 1.9434 -4.8879 0
M  V30 49 Ag 1.0738 -1.9941 3.8743 0
M  V30 50 Fe 3.0777 -0.7297 4.0033 0
M  V30 51 Ag 5.1285 0.4612 3.9215 0
M  V30 52 Ag -5.0990 -1.3174 5.4622 0
M  V30 53 Fe -3.0961 -2.4357 4.8551 0
M  V30 54 Ag -1.0628 -3.3194 4.0092 0
M  V30 55 Ag -5.1122 1.1681 5.8690 0
M  V30 56 Fe -4.2339 3.2234 5.1347 0
M  V30 57 Ag -3.8305 4.9183 3.5534 0
M  V30 58 Ag -7.5516 -2.5927 -2.4914 0
M  V30 59 Fe -7.6895 -0.5781 -3.6934 0
M  V30 60 Ag -6.6981 1.2999 -4.7000 0
M  V30 61 Ag -6.7748 -3.4090 -0.3329 0
M  V30 62 Fe -6.8028 -2.2967 1.7649 0
M  V30 63 Ag -6.7453 -1.1058 3.8186 0
M  V30 64 Ag 0.9657 4.9391 -1.2671 0
M  V30 65 Fe -1.0025 5.3299 0.0054 0
M  V30 66 Ag -2.9726 5.7155 1.2766 0
M  V30 67 Ag 3.2722 4.3159 -0.8950 0
M  V30 68 Fe 4.6775 3.3956 0.7843 0
M  V30 69 Ag 6.0338 2.3120 2.4052 0
M  V30 70 Ag 7.8171 0.8363 1.7382 0
M  V30 71 Fe 8.3508 0.2206 -0.4887 0
M  V30 72 Ag 8.5200 -0.5822 -2.7132 0
M  V30 73 Ag 3.3262 3.1608 -3.1474 0
M  V30 74 Fe 4.9509 1.5005 -3.6536 0
M  V30 75 Ag 6.5805 -0.1459 -4.1882 0
M  V30 76 Ag -4.9791 5.0585 0.2786 0
M  V30 77 Fe -5.1569 4.1976 -1.9264 0
M  V30 78 Ag -5.2788 3.1961 -4.0749 0
M  V30 79 Ag -4.5473 -3.9148 -1.3447 0
M  V30 80 Fe -2.6673 -3.8691 0.1082 0
M  V30 81 Ag -0.7849 -3.8284 1.5583 0
M  V30 82 Ba 3.8128 -2.7043 0.1937 0
M  V30 83 Ga 2.5295 -2.6120 0.9155 0
M  V30 84 Ba 1.2161 -2.3864 1.5485 0
M  V30 85 Ba -5.3631 -2.6822 -3.4554 0
M  V30 86 Ga -5.1057 -1.3871 -4.1646 0
M  V30 87 Ba -4.8096 -0.1443 -4.9484 0
M  V30 88 Ba 6.8010 -4.2704 -0.6097 0
M  V30 89 Ga 7.5454 -3.6901 -1.7412 0
M  V30 90 Ba 8.1439 -2.9775 -2.8838 0
M  V30 91 Ba 4.7638 -3.8437 -1.7214 0
M  V30 92 Ga 5.3743 -3.2710 -2.9362 0
M  V30 93 Ba 6.1084 -2.6115 -4.0323 0
M  V30 94 Ba -6.5999 1.5135 4.0259 0
M  V30 95 Ga -6.1194 2.7297 3.2900 0
M  V30 96 Ba -5.7827 3.9825 2.5358 0
M  V30 97 Ba 5.9763 -3.3380 1.5283 0
M  V30 98 Ga 6.3854 -2.1709 2.3394 0
M  V30 99 Ba 6.7914 -1.0007 3.1476 0
M  V30 END ATOM
M  V30 BEGIN BOND
M  V30 1 1 1 2
M  V30 2 1 1 3
M  V30 3 1 1 4
M  V30 4 1 1 5
M  V30 5 1 6 7
M  V30 6 1 6 8
M  V30 7 1 6 9
M  V30 8 1 6 10
M  V30 9 1 11 12
M  V30 10 1 11 13
M  V30 11 1 11 14
M  V30 12 1 11 15
M  V30 13 1 16 17
M  V30 14 1 16 18
M  V30 15 1 16 19
M  V30 16 1 16 20
M  V30 17 1 21 22
M  V30 18 1 21 23
M  V30 19 1 21 24
M  V30 20 1 21 25
M  V30 21 1 26 27
M  V30 22 1 26 28
M  V30 23 1 26 29
M  V30 24 1 26 30
M  V30 25 1 31 32
M  V30 26 1 31 33
M  V30 27 1 31 34
M  V30 28 1 31 35
M  V30 29 1 36 37
M  V30 30 1 36 38
M  V30 31 1 36 39
M  V30 32 1 36 40
M  V30 33 1 41 42
M  V30 34 1 41 43
M  V30 35 1 41 44
M  V30 36 1 41 45
M  V30 37 1 46 47
M  V30 38 1 47 48
M  V30 39 1 49 50
M  V30 40 1 50 51
M  V30 41 1 52 53
M  V30 42 1 53 54
M  V30 43 1 55 56
M  V30 44 1 56 57
M  V30 45 1 58 59
M  V30 46 1 59 60
M  V30 47 1 61 62
M  V30 48 1 62 63
M  V30 49 1 64 65
M  V30 50 1 65 66
M  V30 51 1 67 68
M  V30 52 1 68 69
M  V30 53 1 70 71
M  V30 54 1 71 72
M  V30 55 1 73 74
M  V30 56 1 74 75
M  V30 57 1 76 77
M  V30 58 1 77 78
M  V30 59 1 79 80
M  V30 60 1 80 81
M  V30 61 1 82 83
M  V30 62 1 83 84
M  V30 63 1 85 86
M  V30 64 1 86 87
M  V30 65 1 88 89
M  V30 66 1 89 90
M  V30 67 1 91 92
M  V30 68 1 92 93
M  V30 69 1 94 95
M  V30 70 1 95 96
M  V30 71 1 97 98
M  V30 72 1 98 99
M  V30 73 1 2 46
M  V30 74 1 3 73
M  V30 75 1 4 64
M  V30 76 1 5 67
M  V30 77 1 7 82
M  V30 78 1 8 91
M  V30 79 1 9 97
M  V30 80 1 10 88
M  V30 81 1 12 58
M  V30 82 1 13 79
M  V30 83 1 14 61
M  V30 84 1 15 85
M  V30 85 1 17 63
M  V30 86 1 18 55
M  V30 87 1 19 52
M  V30 88 1 20 94
M  V30 89 1 22 84
M  V30 90 1 23 81
M  V30 91 1 24 54
M  V30 92 1 25 49
M  V30 93 1 27 57
M  V30 94 1 28 76
M  V30 95 1 29 66
M  V30 96 1 30 96
M  V30 97 1 32 48
M  V30 98 1 33 78
M  V30 99 1 34 87
M  V30 100 1 35 60
M  V30 101 1 37 51
M  V30 102 1 38 70
M  V30 103 1 39 99
M  V30 104 1 40 69
M  V30 105 1 42 93
M  V30 106 1 43 75
M  V30 107 1 44 72
M  V30 108 1 45 90
M  V30 END BOND
M  V30 END CTAB
M  END

$$$$
