
     RDKit          3D

  0  0  0  0  0  0  0  0  0  0999 V3000
M  V30 BEGIN CTAB
M  V30 COUNTS 99 108 0 0 0
M  V30 BEGIN ATOM
M  V30 1 Pd -0.8689 3.4936 -6.1253 0
M  V30 2 Pb -0.2610 2.6990 -6.1526 0
M  V30 3 Pb -1.2595 3.2304 -7.0061 0
M  V30 4 Pb -1.5090 4.2634 -6.1023 0
M  V30 5 Pb -0.5324 3.7374 -5.2166 0
M  V30 6 Pd -5.5454 2.7968 -6.4095 0
M  V30 7 Pb -5.6994 1.8126 -6.3705 0
M  V30 8 Pb -5.2610 3.7527 -6.3768 0
M  V30 9 Pb -4.9986 2.6857 -7.2378 0
M  V30 10 Pb -6.0288 2.8904 -5.5398 0
M  V30 11 Pd 5.7035 1.1313 0.4224 0
M  V30 12 Pb 5.8968 0.2883 -0.0667 0
M  V30 13 Pb 5.3789 1.9165 0.9442 0
M  V30 14 Pb 6.0497 0.6891 1.2508 0
M  V30 15 Pb 5.2685 1.5103 -0.3949 0
M  V30 16 Pd 3.8564 -3.9015 5.9843 0
M  V30 17 Pb 3.7698 -3.1788 6.6784 0
M  V30 18 Pb 3.8758 -4.6288 5.2894 0
M  V30 19 Pb 3.2077 -4.4441 6.5137 0
M  V30 20 Pb 4.5217 -3.3385 5.4876 0
M  V30 21 Pd 1.1167 -0.1019 -2.5155 0
M  V30 22 Pb 1.0544 -0.2280 -1.5271 0
M  V30 23 Pb 0.3464 -0.7387 -2.5778 0
M  V30 24 Pb 1.8779 0.5512 -2.4465 0
M  V30 25 Pb 1.1552 0.0107 -3.5088 0
M  V30 26 Pd -4.4221 0.1547 -2.2819 0
M  V30 27 Pb -4.6868 -0.1741 -3.1901 0
M  V30 28 Pb -4.2366 0.4626 -1.3449 0
M  V30 29 Pb -5.1378 0.8503 -2.3520 0
M  V30 30 Pb -3.6968 -0.5365 -2.2587 0
M  V30 31 Pd 1.5924 -4.2701 1.4051 0
M  V30 32 Pb 1.2663 -3.3579 1.1446 0
M  V30 33 Pb 0.7661 -4.3819 1.9551 0
M  V30 34 Pb 2.4024 -4.1527 0.8374 0
M  V30 35 Pb 2.0287 -5.0609 1.8326 0
M  V30 36 Pd -1.0653 2.8927 1.7879 0
M  V30 37 Pb -1.2407 2.6396 2.7413 0
M  V30 38 Pb -0.1849 3.2827 2.0535 0
M  V30 39 Pb -0.8515 3.1778 0.8521 0
M  V30 40 Pb -1.9314 2.4615 1.5249 0
M  V30 41 Pd -0.3740 -2.1069 7.6674 0
M  V30 42 Pb -0.0580 -3.0223 7.9048 0
M  V30 43 Pb 0.4575 -1.7385 8.0819 0
M  V30 44 Pb -1.0657 -2.5319 7.0930 0
M  V30 45 Pb -0.6794 -1.1993 7.3765 0
M  V30 46 Ag 6.2680 0.2973 1.8534 0
M  V30 47 Fe 5.6617 -1.2927 3.5140 0
M  V30 48 Ag 5.0279 -2.8860 5.1612 0
M  V30 49 Ag -1.3559 2.4679 3.4642 0
M  V30 50 Fe -1.1414 0.9739 5.3000 0
M  V30 51 Ag -0.9180 -0.5336 7.1237 0
M  V30 52 Ag 0.1452 -4.4084 2.3724 0
M  V30 53 Fe -0.8434 -3.7399 4.4205 0
M  V30 54 Ag -1.4289 -2.8979 6.5568 0
M  V30 55 Ag -0.3079 3.9179 -4.5250 0
M  V30 56 Fe -0.5029 3.6353 -2.1742 0
M  V30 57 Ag -0.6081 3.4394 0.1909 0
M  V30 58 Ag 5.9118 -0.3968 -0.3522 0
M  V30 59 Fe 4.5934 -2.3478 -0.1201 0
M  V30 60 Ag 3.0101 -4.0199 0.4262 0
M  V30 61 Ag 5.0218 2.4546 1.3193 0
M  V30 62 Fe 2.8138 3.1336 1.8571 0
M  V30 63 Ag 0.5026 3.5352 2.2089 0
M  V30 64 Ba -6.3494 2.9207 -4.8630 0
M  V30 65 Ga -6.0466 2.1721 -3.6289 0
M  V30 66 Ba -5.6669 1.3737 -2.4483 0
M  V30 67 Ba -1.6217 3.0365 -7.6318 0
M  V30 68 Ga -3.0649 2.8072 -7.8115 0
M  V30 69 Ba -4.5248 2.6167 -7.8130 0
M  V30 70 Ba 2.7087 -4.8042 6.9379 0
M  V30 71 Ga 1.4458 -4.3219 7.5159 0
M  V30 72 Ba 0.2108 -3.7085 8.0259 0
M  V30 73 Ba -2.0304 4.8044 -6.1063 0
M  V30 74 Ga -3.4974 4.7035 -6.2155 0
M  V30 75 Ba -4.9409 4.4270 -6.3306 0
M  V30 76 Ba -0.2284 -1.2228 -2.5643 0
M  V30 77 Ga -1.6973 -1.1271 -2.4328 0
M  V30 78 Ba -3.1682 -1.0703 -2.3019 0
M  V30 79 Ba -5.7384 1.0730 -6.2727 0
M  V30 80 Ga -5.3494 0.2843 -5.0898 0
M  V30 81 Ba -4.9334 -0.4122 -3.8589 0
M  V30 82 Ba -4.1973 0.6941 -0.6288 0
M  V30 83 Ga -3.3297 1.4160 0.3264 0
M  V30 84 Ba -2.5862 2.1131 1.3979 0
M  V30 85 Ba 0.9356 -0.3547 -0.7987 0
M  V30 86 Ga 1.0223 -1.5239 0.1001 0
M  V30 87 Ba 1.0704 -2.6333 1.0739 0
M  V30 88 Ba 4.9059 1.7785 -0.9951 0
M  V30 89 Ga 3.6672 1.3994 -1.7093 0
M  V30 90 Ba 2.4360 1.0600 -2.4555 0
M  V30 91 Ba 0.1756 2.0890 -6.1844 0
M  V30 92 Ga 0.6867 1.1027 -5.2128 0
M  V30 93 Ba 1.2041 0.1099 -4.2511 0
M  V30 94 Ba 3.6605 -2.6480 7.2054 0
M  V30 95 Ga 2.4367 -2.0555 7.7912 0
M  V30 96 Ba 1.1468 -1.5374 8.3004 0
M  V30 97 Ba 3.8359 -5.1972 4.7920 0
M  V30 98 Ga 3.1441 -5.4166 3.5013 0
M  V30 99 Ba 2.4304 -5.5680 2.2131 0
M  V30 END ATOM
M  V30 BEGIN BOND
M  V30 1 1 1 2
M  V30 2 1 1 3
M  V30 3 1 1 4
M  V30 4 1 1 5
M  V30 5 1 6 7
M  V30 6 1 6 8
M  V30 7 1 6 9
M  V30 8 1 6 10
M  V30 9 1 11 12
M  V30 10 1 11 13
M  V30 11 1 11 14
M  V30 12 1 11 15
M  V30 13 1 16 17
M  V30 14 1 16 18
M  V30 15 1 16 19
M  V30 16 1 16 20
M  V30 17 1 21 22
M  V30 18 1 21 23
M  V30 19 1 21 24
M  V30 20 1 21 25
M  V30 21 1 26 27
M  V30 22 1 26 28
M  V30 23 1 26 29
M  V30 24 1 26 30
M  V30 25 1 31 32
M  V30 26 1 31 33
M  V30 27 1 31 34
M  V30 28 1 31 35
M  V30 29 1 36 37
M  V30 30 1 36 38
M  V30 31 1 36 39
M  V30 32 1 36 40
M  V30 33 1 41 42
M  V30 34 1 41 43
M  V30 35 1 41 44
M  V30 36 1 41 45
M  V30 37 1 46 47
M  V30 38 1 47 48
M  V30 39 1 49 50
M  V30 40 1 50 51
M  V30 41 1 52 53
M  V30 42 1 53 54
M  V30 43 1 55 56
M  V30 44 1 56 57
M  V30 45 1 58 59
M  V30 46 1 59 60
M  V30 47 1 61 62
M  V30 48 1 62 63
M  V30 49 1 64 65
M  V30 50 1 65 66
M  V30 51 1 67 68
M  V30 52 1 68 69
M  V30 53 1 70 71
M  V30 54 1 71 72
M  V30 55 1 73 74
M  V30 56 1 74 75
M  V30 57 1 76 77
M  V30 58 1 77 78
M  V30 59 1 79 80
M  V30 60 1 80 81
M  V30 61 1 82 83
M  V30 62 1 83 84
M  V30 63 1 85 86
M  V30 64 1 86 87
M  V30 65 1 88 89
M  V30 66 1 89 90
M  V30 67 1 91 92
M  V30 68 1 92 93
M  V30 69 1 94 95
M  V30 70 1 95 96
M  V30 71 1 97 98
M  V30 72 1 98 99
M  V30 73 1 2 91
M  V30 74 1 3 67
M  V30 75 1 4 73
M  V30 76 1 5 55
M  V30 77 1 7 79
M  V30 78 1 8 75
M  V30 79 1 9 69
M  V30 80 1 10 64
M  V30 81 1 12 58
M  V30 82 1 13 61
M  V30 83 1 14 46
M  V30 84 1 15 88
M  V30 85 1 17 94
M  V30 86 1 18 97
M  V30 87 1 19 70
M  V30 88 1 20 48
M  V30 89 1 22 85
M  V30 90 1 23 76
M  V30 91 1 24 90
M  V30 92 1 25 93
M  V30 93 1 27 81
M  V30 94 1 28 82
M  V30 95 1 29 66
M  V30 96 1 30 78
M  V30 97 1 32 87
M  V30 98 1 33 52
M  V30 99 1 34 60
M  V30 100 1 35 99
M  V30 101 1 37 49
M  V30 102 1 38 63
M  V30 103 1 39 57
M  V30 104 1 40 84
M  V30 105 1 42 72
M  V30 106 1 43 96
M  V30 107 1 44 54
M  V30 108 1 45 51
M  V30 END BOND
M  V30 END CTAB
M  END

$$$$
