
     RDKit          3D

  0  0  0  0  0  0  0  0  0  0999 V3000
M  V30 BEGIN CTAB
M  V30 COUNTS 99 108 0 0 0
M  V30 BEGIN ATOM
M  V30 1 Pd 4.1360 0.2133 1.3915 0
M  V30 2 Pb 4.1584 0.8017 2.1989 0
M  V30 3 Pb 4.0632 -0.3811 0.5877 0
M  V30 4 Pb 4.5347 -0.5480 1.9061 0
M  V30 5 Pb 3.7264 0.9797 0.9030 0
M  V30 6 Pd 0.6984 -0.2396 -7.8227 0
M  V30 7 Pb -0.2595 -0.3247 -7.5451 0
M  V30 8 Pb 0.9129 -1.1333 -7.4229 0
M  V30 9 Pb 0.5741 0.7033 -8.1282 0
M  V30 10 Pb 1.6527 -0.1522 -8.0891 0
M  V30 11 Pd -4.6142 2.1066 5.2080 0
M  V30 12 Pb -4.0831 2.9479 5.3314 0
M  V30 13 Pb -4.8808 2.3720 4.2787 0
M  V30 14 Pb -5.0621 1.2217 5.0931 0
M  V30 15 Pb -4.3676 1.8441 6.1387 0
M  V30 16 Pd -3.4546 -4.6378 2.0411 0
M  V30 17 Pb -4.0469 -4.1420 2.6748 0
M  V30 18 Pb -2.8597 -5.1033 1.3945 0
M  V30 19 Pb -4.0821 -4.3747 1.3101 0
M  V30 20 Pb -2.7849 -4.8401 2.7779 0
M  V30 21 Pd -4.8702 1.1332 -2.6194 0
M  V30 22 Pb -4.6110 0.6978 -3.4822 0
M  V30 23 Pb -5.1134 1.5852 -1.7580 0
M  V30 24 Pb -5.2215 0.2580 -2.2882 0
M  V30 25 Pb -4.4776 1.9845 -2.9629 0
M  V30 26 Pd 2.1568 -4.1145 4.0086 0
M  V30 27 Pb 2.1747 -4.6082 3.1455 0
M  V30 28 Pb 2.1295 -3.6180 4.8763 0
M  V30 29 Pb 3.0774 -3.7603 3.8368 0
M  V30 30 Pb 1.2101 -4.4520 4.1633 0
M  V30 31 Pd -0.0319 2.2793 7.3048 0
M  V30 32 Pb 0.8004 2.5375 6.8161 0
M  V30 33 Pb 0.4236 1.4288 7.5624 0
M  V30 34 Pb -0.8616 1.9881 7.7742 0
M  V30 35 Pb -0.5306 3.0818 6.9696 0
M  V30 36 Pd 1.7112 3.9026 -4.9499 0
M  V30 37 Pb 0.7441 4.1379 -4.8650 0
M  V30 38 Pb 2.6844 3.6551 -4.9650 0
M  V30 39 Pb 1.5756 3.8138 -5.9393 0
M  V30 40 Pb 1.8060 3.9610 -3.9609 0
M  V30 41 Pd 4.2549 -0.6293 -4.5425 0
M  V30 42 Pb 3.7534 -1.4476 -4.8310 0
M  V30 43 Pb 4.1341 -0.9046 -3.5845 0
M  V30 44 Pb 4.6466 0.2662 -4.3364 0
M  V30 45 Pb 4.4102 -0.4134 -5.5021 0
M  V30 46 Ag -0.9742 -0.4029 -7.3281 0
M  V30 47 Fe -2.6960 -0.0116 -5.7384 0
M  V30 48 Ag -4.4024 0.3919 -4.1351 0
M  V30 49 Ag 4.1173 1.2653 2.7862 0
M  V30 50 Fe 2.8307 2.0152 4.6352 0
M  V30 51 Ag 1.4401 2.6630 6.4470 0
M  V30 52 Ag -4.1407 2.5904 -3.2448 0
M  V30 53 Fe -2.0960 3.5109 -4.0223 0
M  V30 54 Ag 0.0180 4.2921 -4.7661 0
M  V30 55 Ag -4.5467 -4.1130 0.7844 0
M  V30 56 Fe -5.0509 -2.2975 -0.6599 0
M  V30 57 Ag -5.4463 -0.4183 -2.0557 0
M  V30 58 Ag -2.3038 -5.3987 1.0036 0
M  V30 59 Fe 0.0237 -5.4245 1.3753 0
M  V30 60 Ag 2.0379 -4.9648 2.5105 0
M  V30 61 Ag -5.3331 0.5281 5.0179 0
M  V30 62 Fe -4.9787 -1.6281 4.0911 0
M  V30 63 Ag -4.5042 -3.7353 3.1070 0
M  V30 64 Ag 3.4170 1.5790 0.5814 0
M  V30 65 Fe 2.6505 2.7829 -1.3114 0
M  V30 66 Ag 1.8916 3.9655 -3.2207 0
M  V30 67 Ag 2.1030 -3.2343 5.5204 0
M  V30 68 Fe 1.4578 -1.2585 6.6679 0
M  V30 69 Ag 0.7573 0.7698 7.6838 0
M  V30 70 Ag -5.1048 2.5694 3.5879 0
M  V30 71 Fe -5.1761 2.2304 1.2354 0
M  V30 72 Ag -5.2889 1.9495 -1.1232 0
M  V30 73 Ba -4.1627 1.6599 6.8339 0
M  V30 74 Ga -2.8556 1.6963 7.5066 0
M  V30 75 Ba -1.5053 1.7711 8.0838 0
M  V30 76 Ba 2.3788 -0.0786 -8.2342 0
M  V30 77 Ga 3.4986 -0.1590 -7.2916 0
M  V30 78 Ba 4.5014 -0.2695 -6.2279 0
M  V30 79 Ba 1.1436 -1.7623 -7.0798 0
M  V30 80 Ga 2.2218 -1.9510 -6.0845 0
M  V30 81 Ba 3.3230 -2.0044 -5.0979 0
M  V30 82 Ba -3.6364 3.5408 5.4564 0
M  V30 83 Ga -2.2939 3.6376 6.0705 0
M  V30 84 Ba -0.9534 3.6418 6.6966 0
M  V30 85 Ba -2.2986 -5.0013 3.3468 0
M  V30 86 Ga -0.8744 -4.8215 3.7619 0
M  V30 87 Ba 0.5102 -4.7245 4.3155 0
M  V30 88 Ba 0.5831 1.4298 -8.3120 0
M  V30 89 Ga 0.9791 2.6103 -7.5172 0
M  V30 90 Ba 1.3887 3.7458 -6.6656 0
M  V30 91 Ba 4.8319 -1.1225 2.2892 0
M  V30 92 Ga 4.2961 -2.3029 2.9972 0
M  V30 93 Ba 3.7640 -3.4844 3.7062 0
M  V30 94 Ba 3.4113 3.4820 -4.8549 0
M  V30 95 Ga 4.1713 2.2426 -4.5782 0
M  V30 96 Ba 4.8888 0.9760 -4.3125 0
M  V30 97 Ba 3.9848 -0.8725 0.0237 0
M  V30 98 Ga 4.0305 -0.9525 -1.4523 0
M  V30 99 Ba 4.0350 -1.2194 -2.9066 0
M  V30 END ATOM
M  V30 BEGIN BOND
M  V30 1 1 1 2
M  V30 2 1 1 3
M  V30 3 1 1 4
M  V30 4 1 1 5
M  V30 5 1 6 7
M  V30 6 1 6 8
M  V30 7 1 6 9
M  V30 8 1 6 10
M  V30 9 1 11 12
M  V30 10 1 11 13
M  V30 11 1 11 14
M  V30 12 1 11 15
M  V30 13 1 16 17
M  V30 14 1 16 18
M  V30 15 1 16 19
M  V30 16 1 16 20
M  V30 17 1 21 22
M  V30 18 1 21 23
M  V30 19 1 21 24
M  V30 20 1 21 25
M  V30 21 1 26 27
M  V30 22 1 26 28
M  V30 23 1 26 29
M  V30 24 1 26 30
M  V30 25 1 31 32
M  V30 26 1 31 33
M  V30 27 1 31 34
M  V30 28 1 31 35
M  V30 29 1 36 37
M  V30 30 1 36 38
M  V30 31 1 36 39
M  V30 32 1 36 40
M  V30 33 1 41 42
M  V30 34 1 41 43
M  V30 35 1 41 44
M  V30 36 1 41 45
M  V30 37 1 46 47
M  V30 38 1 47 48
M  V30 39 1 49 50
M  V30 40 1 50 51
M  V30 41 1 52 53
M  V30 42 1 53 54
M  V30 43 1 55 56
M  V30 44 1 56 57
M  V30 45 1 58 59
M  V30 46 1 59 60
M  V30 47 1 61 62
M  V30 48 1 62 63
M  V30 49 1 64 65
M  V30 50 1 65 66
M  V30 51 1 67 68
M  V30 52 1 68 69
M  V30 53 1 70 71
M  V30 54 1 71 72
M  V30 55 1 73 74
M  V30 56 1 74 75
M  V30 57 1 76 77
M  V30 58 1 77 78
M  V30 59 1 79 80
M  V30 60 1 80 81
M  V30 61 1 82 83
M  V30 62 1 83 84
M  V30 63 1 85 86
M  V30 64 1 86 87
M  V30 65 1 88 89
M  V30 66 1 89 90
M  V30 67 1 91 92
M  V30 68 1 92 93
M  V30 69 1 94 95
M  V30 70 1 95 96
M  V30 71 1 97 98
M  V30 72 1 98 99
M  V30 73 1 2 49
M  V30 74 1 3 97
M  V30 75 1 4 91
M  V30 76 1 5 64
M  V30 77 1 7 46
M  V30 78 1 8 79
M  V30 79 1 9 88
M  V30 80 1 10 76
M  V30 81 1 12 82
M  V30 82 1 13 70
M  V30 83 1 14 61
M  V30 84 1 15 73
M  V30 85 1 17 63
M  V30 86 1 18 58
M  V30 87 1 19 55
M  V30 88 1 20 85
M  V30 89 1 22 48
M  V30 90 1 23 72
M  V30 91 1 24 57
M  V30 92 1 25 52
M  V30 93 1 27 60
M  V30 94 1 28 67
M  V30 95 1 29 93
M  V30 96 1 30 87
M  V30 97 1 32 51
M  V30 98 1 33 69
M  V30 99 1 34 75
M  V30 100 1 35 84
M  V30 101 1 37 54
M  V30 102 1 38 94
M  V30 103 1 39 90
M  V30 104 1 40 66
M  V30 105 1 42 81
M  V30 106 1 43 99
M  V30 107 1 44 96
M  V30 108 1 45 78
M  V30 END BOND
M  V30 END CTAB
M  END

$$$$
