
     RDKit          3D

  0  0  0  0  0  0  0  0  0  0999 V3000
M  V30 BEGIN CTAB
M  V30 COUNTS 99 108 0 0 0
M  V30 BEGIN ATOM
M  V30 1 Pd 4.1444 -4.1795 -0.8970 0
M  V30 2 Pb 3.8341 -3.9595 0.0268 0
M  V30 3 Pb 3.2435 -4.0086 -1.2999 0
M  V30 4 Pb 5.0714 -4.2625 -0.5332 0
M  V30 5 Pb 4.5243 -4.2410 -1.8167 0
M  V30 6 Pd -5.1225 -2.3848 4.0421 0
M  V30 7 Pb -4.6327 -2.9948 3.4162 0
M  V30 8 Pb -5.5666 -1.8938 3.2917 0
M  V30 9 Pb -4.6548 -2.8261 4.8033 0
M  V30 10 Pb -5.4744 -1.7030 4.6861 0
M  V30 11 Pd 6.9581 -0.6527 -1.7915 0
M  V30 12 Pb 6.4682 0.0433 -2.3129 0
M  V30 13 Pb 7.1159 -0.0025 -1.0467 0
M  V30 14 Pb 7.3626 -1.3874 -1.2489 0
M  V30 15 Pb 6.7752 -1.3240 -2.5118 0
M  V30 16 Pd 0.1655 0.9094 -5.0939 0
M  V30 17 Pb 0.2476 -0.0006 -4.6784 0
M  V30 18 Pb 1.1001 1.1437 -4.8244 0
M  V30 19 Pb 0.0507 1.8414 -5.4373 0
M  V30 20 Pb -0.7629 0.6974 -5.4017 0
M  V30 21 Pd -5.0521 0.5123 -3.1103 0
M  V30 22 Pb -4.7281 -0.3960 -2.8864 0
M  V30 23 Pb -5.2684 1.4711 -3.2551 0
M  V30 24 Pb -5.5441 0.5065 -2.2408 0
M  V30 25 Pb -4.5680 0.4741 -3.9846 0
M  V30 26 Pd -1.6352 -0.8576 0.9461 0
M  V30 27 Pb -1.7175 -1.8294 1.1650 0
M  V30 28 Pb -1.7003 0.1431 0.8066 0
M  V30 29 Pb -2.2095 -1.1022 0.1647 0
M  V30 30 Pb -0.9913 -0.7282 1.7066 0
M  V30 31 Pd -1.9274 0.1925 6.0440 0
M  V30 32 Pb -2.0753 -0.7150 6.4306 0
M  V30 33 Pb -1.7408 1.0711 5.6135 0
M  V30 34 Pb -1.0777 -0.0950 5.6110 0
M  V30 35 Pb -2.8543 0.4368 6.3301 0
M  V30 36 Pd -1.5726 4.2044 -2.2011 0
M  V30 37 Pb -1.3423 4.4970 -3.1277 0
M  V30 38 Pb -1.7645 3.8014 -1.2989 0
M  V30 39 Pb -0.6261 4.3692 -1.9267 0
M  V30 40 Pb -2.5358 4.1619 -2.4713 0
M  V30 41 Pd 4.0071 2.1802 2.1084 0
M  V30 42 Pb 3.9552 1.2841 2.5479 0
M  V30 43 Pb 4.9384 1.9961 1.7839 0
M  V30 44 Pb 3.0979 2.4167 2.4559 0
M  V30 45 Pb 3.9508 2.9921 1.5369 0
M  V30 46 Ag -5.8961 -1.4800 2.7589 0
M  V30 47 Fe -5.9151 -0.5119 0.5901 0
M  V30 48 Ag -5.9027 0.4387 -1.5864 0
M  V30 49 Ag 3.7014 -3.6875 0.7122 0
M  V30 50 Fe 3.7306 -1.6346 1.9051 0
M  V30 51 Ag 3.8481 0.5749 2.7665 0
M  V30 52 Ag 6.0485 0.5318 -2.6940 0
M  V30 53 Fe 3.9306 0.9582 -3.6793 0
M  V30 54 Ag 1.8008 1.3515 -4.6530 0
M  V30 55 Ag -1.4735 1.6545 5.2319 0
M  V30 56 Fe 0.4423 2.2386 3.9567 0
M  V30 57 Ag 2.4285 2.6376 2.7176 0
M  V30 58 Ag 0.0694 4.5472 -1.7115 0
M  V30 59 Fe 1.9832 4.1344 -0.3725 0
M  V30 60 Ag 3.7825 3.5279 1.0481 0
M  V30 61 Ag 2.6032 -3.8436 -1.6579 0
M  V30 62 Fe 1.4231 -2.2693 -2.9943 0
M  V30 63 Ag 0.2791 -0.6688 -4.3308 0
M  V30 64 Ba -5.3388 2.2090 -3.3129 0
M  V30 65 Ga -4.3193 3.2277 -3.0150 0
M  V30 66 Ba -3.2522 4.1906 -2.6975 0
M  V30 67 Ba 4.8611 -4.1650 -2.4791 0
M  V30 68 Ga 5.7545 -3.0509 -2.8412 0
M  V30 69 Ba 6.6132 -1.8649 -3.0075 0
M  V30 70 Ba -0.0613 2.5579 -5.6273 0
M  V30 71 Ga -0.5952 3.6542 -4.8003 0
M  V30 72 Ba -1.1430 4.6257 -3.8376 0
M  V30 73 Ba -4.2613 -3.0778 5.3846 0
M  V30 74 Ga -3.2230 -2.3288 6.1026 0
M  V30 75 Ba -2.2308 -1.4061 6.6675 0
M  V30 76 Ba -0.4767 -0.6976 2.2587 0
M  V30 77 Ga -0.4585 -0.4871 3.7209 0
M  V30 78 Ba -0.4911 -0.2650 5.1808 0
M  V30 79 Ba -4.1753 -3.4159 2.9924 0
M  V30 80 Ga -3.0269 -3.0400 2.1419 0
M  V30 81 Ba -1.9071 -2.5391 1.3183 0
M  V30 82 Ba 5.7812 -4.2402 -0.2953 0
M  V30 83 Ga 6.7583 -3.1616 -0.5203 0
M  V30 84 Ba 7.5788 -1.9848 -0.8530 0
M  V30 85 Ba -5.6356 -1.1600 5.1807 0
M  V30 86 Ga -4.6854 -0.2678 5.8764 0
M  V30 87 Ba -3.5870 0.5225 6.4691 0
M  V30 88 Ba 7.2387 0.4720 -0.4776 0
M  V30 89 Ga 6.4163 1.1732 0.5305 0
M  V30 90 Ba 5.6528 1.9020 1.5648 0
M  V30 91 Ba -1.8098 0.8973 0.8214 0
M  V30 92 Ga -1.8222 2.1545 0.0282 0
M  V30 93 Ba -1.8782 3.4930 -0.6172 0
M  V30 94 Ba -1.4525 0.5632 -5.6663 0
M  V30 95 Ga -2.8261 0.4936 -5.1317 0
M  V30 96 Ba -4.2168 0.4138 -4.6448 0
M  V30 97 Ba -4.4321 -1.0291 -2.6421 0
M  V30 98 Ga -3.5102 -1.2243 -1.5122 0
M  V30 99 Ba -2.5880 -1.4454 -0.3876 0
M  V30 END ATOM
M  V30 BEGIN BOND
M  V30 1 1 1 2
M  V30 2 1 1 3
M  V30 3 1 1 4
M  V30 4 1 1 5
M  V30 5 1 6 7
M  V30 6 1 6 8
M  V30 7 1 6 9
M  V30 8 1 6 10
M  V30 9 1 11 12
M  V30 10 1 11 13
M  V30 11 1 11 14
M  V30 12 1 11 15
M  V30 13 1 16 17
M  V30 14 1 16 18
M  V30 15 1 16 19
M  V30 16 1 16 20
M  V30 17 1 21 22
M  V30 18 1 21 23
M  V30 19 1 21 24
M  V30 20 1 21 25
M  V30 21 1 26 27
M  V30 22 1 26 28
M  V30 23 1 26 29
M  V30 24 1 26 30
M  V30 25 1 31 32
M  V30 26 1 31 33
M  V30 27 1 31 34
M  V30 28 1 31 35
M  V30 29 1 36 37
M  V30 30 1 36 38
M  V30 31 1 36 39
M  V30 32 1 36 40
M  V30 33 1 41 42
M  V30 34 1 41 43
M  V30 35 1 41 44
M  V30 36 1 41 45
M  V30 37 1 46 47
M  V30 38 1 47 48
M  V30 39 1 49 50
M  V30 40 1 50 51
M  V30 41 1 52 53
M  V30 42 1 53 54
M  V30 43 1 55 56
M  V30 44 1 56 57
M  V30 45 1 58 59
M  V30 46 1 59 60
M  V30 47 1 61 62
M  V30 48 1 62 63
M  V30 49 1 64 65
M  V30 50 1 65 66
M  V30 51 1 67 68
M  V30 52 1 68 69
M  V30 53 1 70 71
M  V30 54 1 71 72
M  V30 55 1 73 74
M  V30 56 1 74 75
M  V30 57 1 76 77
M  V30 58 1 77 78
M  V30 59 1 79 80
M  V30 60 1 80 81
M  V30 61 1 82 83
M  V30 62 1 83 84
M  V30 63 1 85 86
M  V30 64 1 86 87
M  V30 65 1 88 89
M  V30 66 1 89 90
M  V30 67 1 91 92
M  V30 68 1 92 93
M  V30 69 1 94 95
M  V30 70 1 95 96
M  V30 71 1 97 98
M  V30 72 1 98 99
M  V30 73 1 2 49
M  V30 74 1 3 61
M  V30 75 1 4 82
M  V30 76 1 5 67
M  V30 77 1 7 79
M  V30 78 1 8 46
M  V30 79 1 9 73
M  V30 80 1 10 85
M  V30 81 1 12 52
M  V30 82 1 13 88
M  V30 83 1 14 84
M  V30 84 1 15 69
M  V30 85 1 17 63
M  V30 86 1 18 54
M  V30 87 1 19 70
M  V30 88 1 20 94
M  V30 89 1 22 97
M  V30 90 1 23 64
M  V30 91 1 24 48
M  V30 92 1 25 96
M  V30 93 1 27 81
M  V30 94 1 28 91
M  V30 95 1 29 99
M  V30 96 1 30 76
M  V30 97 1 32 75
M  V30 98 1 33 55
M  V30 99 1 34 78
M  V30 100 1 35 87
M  V30 101 1 37 72
M  V30 102 1 38 93
M  V30 103 1 39 58
M  V30 104 1 40 66
M  V30 105 1 42 51
M  V30 106 1 43 90
M  V30 107 1 44 57
M  V30 108 1 45 60
M  V30 END BOND
M  V30 END CTAB
M  END

$$$$
