
     RDKit          3D

  0  0  0  0  0  0  0  0  0  0999 V3000
M  V30 BEGIN CTAB
M  V30 COUNTS 99 108 0 0 0
M  V30 BEGIN ATOM
M  V30 1 Pd -0.9870 0.8702 -2.4149 0
M  V30 2 Pb -1.4438 0.4350 -1.6429 0
M  V30 3 Pb -0.4906 1.5038 -1.8075 0
M  V30 4 Pb -0.6206 1.3662 -3.1923 0
M  V30 5 Pb -1.4324 0.2184 -3.0280 0
M  V30 6 Pd 1.4815 7.7951 0.8651 0
M  V30 7 Pb 0.5623 7.7185 1.2188 0
M  V30 8 Pb 1.2277 8.7406 0.6802 0
M  V30 9 Pb 1.6288 8.3582 1.6662 0
M  V30 10 Pb 1.4750 6.8274 0.5905 0
M  V30 11 Pd 3.9312 -6.4726 -0.2598 0
M  V30 12 Pb 3.5756 -7.2560 0.2544 0
M  V30 13 Pb 3.5772 -6.9263 -1.0950 0
M  V30 14 Pb 4.2286 -5.9688 0.5575 0
M  V30 15 Pb 4.2609 -5.7246 -0.8283 0
M  V30 16 Pd -3.6971 3.0838 1.5306 0
M  V30 17 Pb -3.5989 2.1466 1.1975 0
M  V30 18 Pb -3.7592 4.0071 1.8751 0
M  V30 19 Pb -3.2028 2.8323 2.3680 0
M  V30 20 Pb -4.0419 3.4559 0.6597 0
M  V30 21 Pd 1.1483 4.4732 2.6137 0
M  V30 22 Pb 1.1581 5.2785 3.2200 0
M  V30 23 Pb 0.5025 3.9830 3.2102 0
M  V30 24 Pb 1.7091 4.9738 1.9384 0
M  V30 25 Pb 1.2008 3.6500 2.0462 0
M  V30 26 Pd -0.7947 7.8801 -2.9323 0
M  V30 27 Pb -1.7598 7.5986 -2.8958 0
M  V30 28 Pb -0.9092 8.6729 -2.3320 0
M  V30 29 Pb -0.6154 7.1246 -3.5527 0
M  V30 30 Pb 0.1873 7.9292 -2.7557 0
M  V30 31 Pd -2.3561 -8.6918 1.9485 0
M  V30 32 Pb -1.6226 -9.3563 1.8343 0
M  V30 33 Pb -1.9765 -8.5141 2.8496 0
M  V30 34 Pb -2.6396 -8.7981 0.9956 0
M  V30 35 Pb -2.8621 -7.8328 2.0352 0
M  V30 36 Pd 1.3802 -3.1404 2.8695 0
M  V30 37 Pb 0.3777 -3.1302 2.8117 0
M  V30 38 Pb 2.3690 -3.3003 2.8507 0
M  V30 39 Pb 1.2791 -3.9023 3.5020 0
M  V30 40 Pb 1.4498 -2.3467 2.2628 0
M  V30 41 Pd 0.0179 -6.0446 -4.5079 0
M  V30 42 Pb 0.7345 -5.4034 -4.7663 0
M  V30 43 Pb -0.6652 -5.3624 -4.7615 0
M  V30 44 Pb -0.6948 -6.6649 -4.1782 0
M  V30 45 Pb 0.7361 -6.6661 -4.1574 0
M  V30 46 Ag -1.7285 -0.3044 -3.4762 0
M  V30 47 Fe -1.5362 -2.5365 -4.2600 0
M  V30 48 Ag -1.1302 -4.7897 -4.8856 0
M  V30 49 Ag 4.3812 -5.2209 -1.3597 0
M  V30 50 Fe 3.1311 -4.7240 -3.2964 0
M  V30 51 Ag 1.3283 -4.9597 -4.7981 0
M  V30 52 Ag 1.2648 3.0119 1.6547 0
M  V30 53 Fe 1.3730 0.6381 1.6953 0
M  V30 54 Ag 1.4715 -1.7326 1.8303 0
M  V30 55 Ag 3.2575 -7.8774 0.5365 0
M  V30 56 Fe 1.2334 -8.9381 1.1876 0
M  V30 57 Ag -0.9473 -9.6719 1.7786 0
M  V30 58 Ag -0.1196 7.6913 1.5013 0
M  V30 59 Fe -2.0300 6.3688 1.8989 0
M  V30 60 Ag -3.6945 4.7104 2.0793 0
M  V30 61 Ag -4.2269 3.8639 0.0461 0
M  V30 62 Fe -3.4391 5.5537 -1.4446 0
M  V30 63 Ag -2.4175 7.2338 -2.7978 0
M  V30 64 Ag -3.0515 -7.1097 2.1181 0
M  V30 65 Fe -1.8946 -5.0555 2.4426 0
M  V30 66 Ag -0.3634 -3.2601 2.7541 0
M  V30 67 Ag -1.5975 -8.2840 3.4453 0
M  V30 68 Fe -0.1822 -6.4579 3.9520 0
M  V30 69 Ag 1.1157 -4.4801 3.9423 0
M  V30 70 Ag -0.0654 1.9568 -1.3728 0
M  V30 71 Fe 0.6342 4.0615 -0.4982 0
M  V30 72 Ag 1.4569 6.0780 0.4718 0
M  V30 73 Ag 2.0645 5.3654 1.3916 0
M  V30 74 Fe 1.7351 6.6002 -0.6243 0
M  V30 75 Ag 0.8728 7.8179 -2.4737 0
M  V30 76 Ag -0.4119 1.8393 -3.7232 0
M  V30 77 Fe -0.3502 4.1797 -4.0523 0
M  V30 78 Ag -0.4480 6.5413 -3.9824 0
M  V30 79 Ag -2.7835 -8.8289 0.2604 0
M  V30 80 Fe -2.0787 -8.0300 -1.8624 0
M  V30 81 Ag -1.2140 -7.1155 -3.8768 0
M  V30 82 Ba -1.8494 0.1423 -1.0878 0
M  V30 83 Ga -2.6703 0.7678 -0.0369 0
M  V30 84 Ba -3.4803 1.4338 0.9975 0
M  V30 85 Ba 4.4497 -5.5325 1.1334 0
M  V30 86 Ga 3.7884 -4.5196 1.9883 0
M  V30 87 Ba 3.0897 -3.5156 2.8237 0
M  V30 88 Ba 0.8892 9.3718 0.4689 0
M  V30 89 Ga -0.0196 9.4438 -0.6886 0
M  V30 90 Ba -0.8673 9.2732 -1.8822 0
M  V30 91 Ba 1.6570 8.5074 2.3900 0
M  V30 92 Ga 1.4491 7.2916 3.1930 0
M  V30 93 Ba 1.2175 5.9060 3.6409 0
M  V30 94 Ba 3.3140 -7.2918 -1.7121 0
M  V30 95 Ga 2.2837 -7.1562 -2.7824 0
M  V30 96 Ba 1.2897 -7.1196 -3.8942 0
M  V30 97 Ba -2.7745 2.7117 2.9784 0
M  V30 98 Ga -1.3941 3.1386 3.3179 0
M  V30 99 Ba -0.0104 3.5917 3.6062 0
M  V30 END ATOM
M  V30 BEGIN BOND
M  V30 1 1 1 2
M  V30 2 1 1 3
M  V30 3 1 1 4
M  V30 4 1 1 5
M  V30 5 1 6 7
M  V30 6 1 6 8
M  V30 7 1 6 9
M  V30 8 1 6 10
M  V30 9 1 11 12
M  V30 10 1 11 13
M  V30 11 1 11 14
M  V30 12 1 11 15
M  V30 13 1 16 17
M  V30 14 1 16 18
M  V30 15 1 16 19
M  V30 16 1 16 20
M  V30 17 1 21 22
M  V30 18 1 21 23
M  V30 19 1 21 24
M  V30 20 1 21 25
M  V30 21 1 26 27
M  V30 22 1 26 28
M  V30 23 1 26 29
M  V30 24 1 26 30
M  V30 25 1 31 32
M  V30 26 1 31 33
M  V30 27 1 31 34
M  V30 28 1 31 35
M  V30 29 1 36 37
M  V30 30 1 36 38
M  V30 31 1 36 39
M  V30 32 1 36 40
M  V30 33 1 41 42
M  V30 34 1 41 43
M  V30 35 1 41 44
M  V30 36 1 41 45
M  V30 37 1 46 47
M  V30 38 1 47 48
M  V30 39 1 49 50
M  V30 40 1 50 51
M  V30 41 1 52 53
M  V30 42 1 53 54
M  V30 43 1 55 56
M  V30 44 1 56 57
M  V30 45 1 58 59
M  V30 46 1 59 60
M  V30 47 1 61 62
M  V30 48 1 62 63
M  V30 49 1 64 65
M  V30 50 1 65 66
M  V30 51 1 67 68
M  V30 52 1 68 69
M  V30 53 1 70 71
M  V30 54 1 71 72
M  V30 55 1 73 74
M  V30 56 1 74 75
M  V30 57 1 76 77
M  V30 58 1 77 78
M  V30 59 1 79 80
M  V30 60 1 80 81
M  V30 61 1 82 83
M  V30 62 1 83 84
M  V30 63 1 85 86
M  V30 64 1 86 87
M  V30 65 1 88 89
M  V30 66 1 89 90
M  V30 67 1 91 92
M  V30 68 1 92 93
M  V30 69 1 94 95
M  V30 70 1 95 96
M  V30 71 1 97 98
M  V30 72 1 98 99
M  V30 73 1 2 82
M  V30 74 1 3 70
M  V30 75 1 4 76
M  V30 76 1 5 46
M  V30 77 1 7 58
M  V30 78 1 8 88
M  V30 79 1 9 91
M  V30 80 1 10 72
M  V30 81 1 12 55
M  V30 82 1 13 94
M  V30 83 1 14 85
M  V30 84 1 15 49
M  V30 85 1 17 84
M  V30 86 1 18 60
M  V30 87 1 19 97
M  V30 88 1 20 61
M  V30 89 1 22 93
M  V30 90 1 23 99
M  V30 91 1 24 73
M  V30 92 1 25 52
M  V30 93 1 27 63
M  V30 94 1 28 90
M  V30 95 1 29 78
M  V30 96 1 30 75
M  V30 97 1 32 57
M  V30 98 1 33 67
M  V30 99 1 34 79
M  V30 100 1 35 64
M  V30 101 1 37 66
M  V30 102 1 38 87
M  V30 103 1 39 69
M  V30 104 1 40 54
M  V30 105 1 42 51
M  V30 106 1 43 48
M  V30 107 1 44 81
M  V30 108 1 45 96
M  V30 END BOND
M  V30 END CTAB
M  END

$$$$
