
     RDKit          3D

  0  0  0  0  0  0  0  0  0  0999 V3000
M  V30 BEGIN CTAB
M  V30 COUNTS 99 108 0 0 0
M  V30 BEGIN ATOM
M  V30 1 Pd 4.0389 -0.6819 -2.5859 0
M  V30 2 Pb 3.5506 -0.1672 -3.2894 0
M  V30 3 Pb 4.5399 0.1658 -2.3869 0
M  V30 4 Pb 3.7375 -1.5716 -2.9428 0
M  V30 5 Pb 4.3837 -1.1576 -1.7742 0
M  V30 6 Pd 1.6979 6.6597 3.4534 0
M  V30 7 Pb 0.7849 6.3336 3.6822 0
M  V30 8 Pb 1.3923 7.0545 2.5901 0
M  V30 9 Pb 2.0154 6.1906 4.2753 0
M  V30 10 Pb 2.6445 6.8657 3.1752 0
M  V30 11 Pd -6.0372 0.2241 -0.5173 0
M  V30 12 Pb -5.5215 0.8922 -1.0972 0
M  V30 13 Pb -5.6380 0.5709 0.3366 0
M  V30 14 Pb -6.4959 -0.5067 -0.0151 0
M  V30 15 Pb -6.5230 -0.0880 -1.3224 0
M  V30 16 Pd -4.1952 -6.5590 0.8544 0
M  V30 17 Pb -5.0776 -6.1007 0.9377 0
M  V30 18 Pb -4.3259 -6.7383 -0.1199 0
M  V30 19 Pb -3.9985 -6.2460 1.7788 0
M  V30 20 Pb -3.2643 -6.9035 0.7436 0
M  V30 21 Pd -2.1949 0.0181 4.1299 0
M  V30 22 Pb -1.9742 0.9904 4.2115 0
M  V30 23 Pb -3.0105 0.3341 3.6352 0
M  V30 24 Pb -2.4763 -0.9413 4.1228 0
M  V30 25 Pb -1.3892 -0.2941 4.6448 0
M  V30 26 Pd 0.4342 -5.1589 -4.3331 0
M  V30 27 Pb -0.5014 -5.5134 -4.3596 0
M  V30 28 Pb 0.2687 -4.6095 -5.1510 0
M  V30 29 Pb 1.3619 -4.7926 -4.2573 0
M  V30 30 Pb 0.5521 -5.6912 -3.4957 0
M  V30 31 Pd -2.8684 1.0028 -5.5048 0
M  V30 32 Pb -1.9334 1.2996 -5.3107 0
M  V30 33 Pb -2.4645 0.4229 -6.2077 0
M  V30 34 Pb -3.7690 0.6786 -5.7621 0
M  V30 35 Pb -3.2681 1.4668 -4.6850 0
M  V30 36 Pd 3.6019 -0.1766 4.8134 0
M  V30 37 Pb 2.7358 -0.5779 5.1209 0
M  V30 38 Pb 4.4475 0.2493 4.5011 0
M  V30 39 Pb 3.4449 0.6123 5.4043 0
M  V30 40 Pb 3.7900 -0.8989 4.1462 0
M  V30 41 Pd 5.5403 4.6815 -0.2559 0
M  V30 42 Pb 4.9533 5.2153 -0.8596 0
M  V30 43 Pb 5.6789 3.9682 -0.9435 0
M  V30 44 Pb 6.0569 4.1344 0.3968 0
M  V30 45 Pb 5.3962 5.3839 0.4571 0
M  V30 46 Ag 0.1483 5.9919 3.8705 0
M  V30 47 Fe -0.8923 3.8667 4.0646 0
M  V30 48 Ag -1.9256 1.7383 4.2627 0
M  V30 49 Ag 3.1360 0.2860 -3.7197 0
M  V30 50 Fe 0.9779 0.8891 -4.5085 0
M  V30 51 Ag -1.2001 1.4547 -5.2700 0
M  V30 52 Ag -3.8522 -5.9059 2.4263 0
M  V30 53 Fe -3.2522 -3.8027 3.3472 0
M  V30 54 Ag -2.6543 -1.6669 4.1915 0
M  V30 55 Ag -4.3080 -6.8033 -0.8662 0
M  V30 56 Fe -2.8650 -6.3558 -2.6987 0
M  V30 57 Ag -1.1955 -5.7915 -4.2911 0
M  V30 58 Ag -6.8207 -0.2699 -1.9725 0
M  V30 59 Fe -6.0490 -0.1146 -4.1863 0
M  V30 60 Ag -4.4534 0.4129 -5.8278 0
M  V30 61 Ag 1.3142 7.2539 1.8778 0
M  V30 62 Fe 2.6283 6.6958 -0.0028 0
M  V30 63 Ag 4.4172 5.6505 -1.1350 0
M  V30 64 Ag -2.5568 -7.0839 0.5781 0
M  V30 65 Fe -0.8847 -6.6859 -1.0586 0
M  V30 66 Ag 0.5404 -6.0858 -2.8591 0
M  V30 67 Ag -6.8005 -1.1205 0.2858 0
M  V30 68 Fe -6.3876 -3.4162 0.7199 0
M  V30 69 Ag -5.6738 -5.6579 1.0258 0
M  V30 70 Ag 2.2179 5.7627 4.8546 0
M  V30 71 Fe 2.8000 3.5439 5.4597 0
M  V30 72 Ag 3.3492 1.2571 5.7711 0
M  V30 73 Ag 4.5248 -1.5262 -1.1333 0
M  V30 74 Fe 4.3059 -1.5240 1.2348 0
M  V30 75 Ag 4.0130 -1.3511 3.5884 0
M  V30 76 Ag 5.0557 0.5828 4.2248 0
M  V30 77 Fe 5.8481 2.1268 2.6107 0
M  V30 78 Ag 6.3688 3.7037 0.9197 0
M  V30 79 Ag 0.1032 -4.1663 -5.7314 0
M  V30 80 Fe -0.9704 -2.1460 -6.3577 0
M  V30 81 Ag -2.1165 -0.0872 -6.6272 0
M  V30 82 Ba -0.8382 -0.6159 5.0501 0
M  V30 83 Ga 0.6354 -0.6905 5.1729 0
M  V30 84 Ba 2.0903 -0.8507 5.3962 0
M  V30 85 Ba 3.3551 7.0004 2.9471 0
M  V30 86 Ga 4.3074 6.4321 1.9555 0
M  V30 87 Ba 5.3168 5.9222 0.9892 0
M  V30 88 Ba -5.1426 1.4038 -1.5372 0
M  V30 89 Ga -4.3599 1.5311 -2.8148 0
M  V30 90 Ba -3.5625 1.8116 -4.0584 0
M  V30 91 Ba 3.6801 -2.2588 -3.2515 0
M  V30 92 Ga 2.7878 -3.3510 -3.6948 0
M  V30 93 Ba 2.0659 -4.5415 -4.1938 0
M  V30 94 Ba 4.9971 0.7672 -2.4025 0
M  V30 95 Ga 5.3315 2.0973 -1.8506 0
M  V30 96 Ba 5.8296 3.4291 -1.4431 0
M  V30 97 Ba -5.4330 0.8566 1.0037 0
M  V30 98 Ga -4.4692 0.6864 2.1145 0
M  V30 99 Ba -3.6029 0.6749 3.3148 0
M  V30 END ATOM
M  V30 BEGIN BOND
M  V30 1 1 1 2
M  V30 2 1 1 3
M  V30 3 1 1 4
M  V30 4 1 1 5
M  V30 5 1 6 7
M  V30 6 1 6 8
M  V30 7 1 6 9
M  V30 8 1 6 10
M  V30 9 1 11 12
M  V30 10 1 11 13
M  V30 11 1 11 14
M  V30 12 1 11 15
M  V30 13 1 16 17
M  V30 14 1 16 18
M  V30 15 1 16 19
M  V30 16 1 16 20
M  V30 17 1 21 22
M  V30 18 1 21 23
M  V30 19 1 21 24
M  V30 20 1 21 25
M  V30 21 1 26 27
M  V30 22 1 26 28
M  V30 23 1 26 29
M  V30 24 1 26 30
M  V30 25 1 31 32
M  V30 26 1 31 33
M  V30 27 1 31 34
M  V30 28 1 31 35
M  V30 29 1 36 37
M  V30 30 1 36 38
M  V30 31 1 36 39
M  V30 32 1 36 40
M  V30 33 1 41 42
M  V30 34 1 41 43
M  V30 35 1 41 44
M  V30 36 1 41 45
M  V30 37 1 46 47
M  V30 38 1 47 48
M  V30 39 1 49 50
M  V30 40 1 50 51
M  V30 41 1 52 53
M  V30 42 1 53 54
M  V30 43 1 55 56
M  V30 44 1 56 57
M  V30 45 1 58 59
M  V30 46 1 59 60
M  V30 47 1 61 62
M  V30 48 1 62 63
M  V30 49 1 64 65
M  V30 50 1 65 66
M  V30 51 1 67 68
M  V30 52 1 68 69
M  V30 53 1 70 71
M  V30 54 1 71 72
M  V30 55 1 73 74
M  V30 56 1 74 75
M  V30 57 1 76 77
M  V30 58 1 77 78
M  V30 59 1 79 80
M  V30 60 1 80 81
M  V30 61 1 82 83
M  V30 62 1 83 84
M  V30 63 1 85 86
M  V30 64 1 86 87
M  V30 65 1 88 89
M  V30 66 1 89 90
M  V30 67 1 91 92
M  V30 68 1 92 93
M  V30 69 1 94 95
M  V30 70 1 95 96
M  V30 71 1 97 98
M  V30 72 1 98 99
M  V30 73 1 2 49
M  V30 74 1 3 94
M  V30 75 1 4 91
M  V30 76 1 5 73
M  V30 77 1 7 46
M  V30 78 1 8 61
M  V30 79 1 9 70
M  V30 80 1 10 85
M  V30 81 1 12 88
M  V30 82 1 13 97
M  V30 83 1 14 67
M  V30 84 1 15 58
M  V30 85 1 17 69
M  V30 86 1 18 55
M  V30 87 1 19 52
M  V30 88 1 20 64
M  V30 89 1 22 48
M  V30 90 1 23 99
M  V30 91 1 24 54
M  V30 92 1 25 82
M  V30 93 1 27 57
M  V30 94 1 28 79
M  V30 95 1 29 93
M  V30 96 1 30 66
M  V30 97 1 32 51
M  V30 98 1 33 81
M  V30 99 1 34 60
M  V30 100 1 35 90
M  V30 101 1 37 84
M  V30 102 1 38 76
M  V30 103 1 39 72
M  V30 104 1 40 75
M  V30 105 1 42 63
M  V30 106 1 43 96
M  V30 107 1 44 78
M  V30 108 1 45 87
M  V30 END BOND
M  V30 END CTAB
M  END

$$$$
