
     RDKit          3D

  0  0  0  0  0  0  0  0  0  0999 V3000
M  V30 BEGIN CTAB
M  V30 COUNTS 99 108 0 0 0
M  V30 BEGIN ATOM
M  V30 1 Pd -5.2644 0.1509 -1.2773 0
M  V30 2 Pb -4.8933 0.3049 -2.1944 0
M  V30 3 Pb -5.6323 0.0090 -0.3556 0
M  V30 4 Pb -5.2653 -0.8392 -1.4170 0
M  V30 5 Pb -5.2337 1.1377 -1.1346 0
M  V30 6 Pd -0.6347 2.0295 6.5308 0
M  V30 7 Pb -0.3815 1.5029 5.7196 0
M  V30 8 Pb -0.8551 2.5297 7.3629 0
M  V30 9 Pb -0.1051 2.8196 6.2173 0
M  V30 10 Pb -1.3044 1.3095 6.7925 0
M  V30 11 Pd 5.2043 0.7601 -4.9244 0
M  V30 12 Pb 4.9061 0.2113 -5.7044 0
M  V30 13 Pb 5.5085 1.2755 -4.1208 0
M  V30 14 Pb 5.8930 0.0773 -4.6921 0
M  V30 15 Pb 4.4736 1.4137 -5.1320 0
M  V30 16 Pd 5.1996 -4.6233 -0.2599 0
M  V30 17 Pb 5.9416 -4.2885 -0.8346 0
M  V30 18 Pb 4.3799 -4.9225 0.2347 0
M  V30 19 Pb 5.4184 -3.9107 0.4078 0
M  V30 20 Pb 4.9484 -5.2815 -0.9643 0
M  V30 21 Pd 4.0209 0.8260 0.4407 0
M  V30 22 Pb 3.2719 0.4970 1.0146 0
M  V30 23 Pb 4.7441 1.1907 -0.1492 0
M  V30 24 Pb 4.5976 0.0754 0.7767 0
M  V30 25 Pb 3.4575 1.6112 0.1861 0
M  V30 26 Pd -1.1959 -6.1830 -2.8761 0
M  V30 27 Pb -0.8961 -6.2686 -1.9234 0
M  V30 28 Pb -1.3921 -5.9622 -3.8299 0
M  V30 29 Pb -2.0850 -5.8118 -2.6100 0
M  V30 30 Pb -0.2956 -6.5240 -3.1334 0
M  V30 31 Pd 0.3887 -0.2185 -6.7073 0
M  V30 32 Pb -0.5004 0.1084 -6.3843 0
M  V30 33 Pb -0.0298 -1.1111 -6.8789 0
M  V30 34 Pb 0.8238 0.6593 -6.4925 0
M  V30 35 Pb 1.2723 -0.5517 -7.0335 0
M  V30 36 Pd -1.7197 5.4699 2.6097 0
M  V30 37 Pb -0.9714 5.2803 1.9737 0
M  V30 38 Pb -2.5191 5.6227 3.1935 0
M  V30 39 Pb -1.0612 5.4640 3.3683 0
M  V30 40 Pb -2.3700 5.4013 1.8575 0
M  V30 41 Pd -6.0505 1.6173 6.4843 0
M  V30 42 Pb -5.9206 2.0883 7.3517 0
M  V30 43 Pb -6.2110 1.1395 5.6173 0
M  V30 44 Pb -6.4151 2.4683 6.1202 0
M  V30 45 Pb -5.3879 0.9135 6.7779 0
M  V30 46 Ag -0.1792 1.0844 5.1312 0
M  V30 47 Fe 1.2535 0.6756 3.2822 0
M  V30 48 Ag 2.6922 0.2777 1.4357 0
M  V30 49 Ag -4.6179 0.4629 -2.8753 0
M  V30 50 Fe -2.8875 0.3818 -4.5019 0
M  V30 51 Ag -1.1828 0.3233 -6.1563 0
M  V30 52 Ag 3.0464 2.2212 0.0424 0
M  V30 53 Fe 1.3073 3.6819 0.7363 0
M  V30 54 Ag -0.4385 5.1136 1.4727 0
M  V30 55 Ag 3.7163 -5.1668 0.4946 0
M  V30 56 Fe 1.5265 -5.7583 -0.2240 0
M  V30 57 Ag -0.5583 -6.2695 -1.2504 0
M  V30 58 Ag -1.1654 2.8528 7.9525 0
M  V30 59 Fe -3.4478 2.9641 8.5034 0
M  V30 60 Ag -5.6728 2.4450 7.9515 0
M  V30 61 Ag 4.6729 -5.7362 -1.4873 0
M  V30 62 Fe 2.6203 -6.3623 -2.4917 0
M  V30 63 Ag 0.4088 -6.7378 -3.2545 0
M  V30 64 Ag 6.3673 -0.4471 -4.4517 0
M  V30 65 Fe 6.5659 -2.2519 -2.9281 0
M  V30 66 Ag 6.4234 -3.9830 -1.3154 0
M  V30 67 Ag -5.2523 -1.5844 -1.5007 0
M  V30 68 Fe -4.0221 -3.5622 -1.9635 0
M  V30 69 Ag -2.7482 -5.5105 -2.4329 0
M  V30 70 Ag -5.1664 1.8762 -1.0397 0
M  V30 71 Fe -4.0687 3.6447 0.0968 0
M  V30 72 Ag -2.8807 5.2894 1.3244 0
M  V30 73 Ag -3.1905 5.6859 3.5272 0
M  V30 74 Fe -4.9440 4.5770 4.6833 0
M  V30 75 Ag -6.4522 3.1634 5.8517 0
M  V30 76 Ag -5.9139 -0.1186 0.3305 0
M  V30 77 Fe -6.1022 0.3633 2.6515 0
M  V30 78 Ag -6.3588 0.7654 4.9810 0
M  V30 79 Ag -1.4702 -5.6997 -4.5266 0
M  V30 80 Fe -0.9677 -3.7966 -5.8546 0
M  V30 81 Ag -0.3520 -1.7847 -6.9555 0
M  V30 82 Ba 5.6086 -3.3509 0.8708 0
M  V30 83 Ga 5.2925 -1.9091 0.9620 0
M  V30 84 Ba 5.0148 -0.4633 1.1008 0
M  V30 85 Ba 3.8981 1.8670 -5.3034 0
M  V30 86 Ga 2.5335 1.6074 -5.8113 0
M  V30 87 Ba 1.1788 1.3004 -6.3192 0
M  V30 88 Ba -1.8292 0.7805 6.9783 0
M  V30 89 Ga -3.3183 0.6324 6.9731 0
M  V30 90 Ba -4.8051 0.4627 6.9765 0
M  V30 91 Ba 4.6614 -0.2041 -6.2778 0
M  V30 92 Ga 3.3147 -0.5084 -6.7930 0
M  V30 93 Ba 1.9462 -0.7801 -7.2674 0
M  V30 94 Ba 0.2177 3.4579 5.9846 0
M  V30 95 Ga -0.1451 4.4454 4.9434 0
M  V30 96 Ba -0.5251 5.4220 3.8980 0
M  V30 97 Ba 5.7834 1.6113 -3.5064 0
M  V30 98 Ga 5.5066 1.5591 -2.0552 0
M  V30 99 Ba 5.2470 1.5215 -0.6004 0
M  V30 END ATOM
M  V30 BEGIN BOND
M  V30 1 1 1 2
M  V30 2 1 1 3
M  V30 3 1 1 4
M  V30 4 1 1 5
M  V30 5 1 6 7
M  V30 6 1 6 8
M  V30 7 1 6 9
M  V30 8 1 6 10
M  V30 9 1 11 12
M  V30 10 1 11 13
M  V30 11 1 11 14
M  V30 12 1 11 15
M  V30 13 1 16 17
M  V30 14 1 16 18
M  V30 15 1 16 19
M  V30 16 1 16 20
M  V30 17 1 21 22
M  V30 18 1 21 23
M  V30 19 1 21 24
M  V30 20 1 21 25
M  V30 21 1 26 27
M  V30 22 1 26 28
M  V30 23 1 26 29
M  V30 24 1 26 30
M  V30 25 1 31 32
M  V30 26 1 31 33
M  V30 27 1 31 34
M  V30 28 1 31 35
M  V30 29 1 36 37
M  V30 30 1 36 38
M  V30 31 1 36 39
M  V30 32 1 36 40
M  V30 33 1 41 42
M  V30 34 1 41 43
M  V30 35 1 41 44
M  V30 36 1 41 45
M  V30 37 1 46 47
M  V30 38 1 47 48
M  V30 39 1 49 50
M  V30 40 1 50 51
M  V30 41 1 52 53
M  V30 42 1 53 54
M  V30 43 1 55 56
M  V30 44 1 56 57
M  V30 45 1 58 59
M  V30 46 1 59 60
M  V30 47 1 61 62
M  V30 48 1 62 63
M  V30 49 1 64 65
M  V30 50 1 65 66
M  V30 51 1 67 68
M  V30 52 1 68 69
M  V30 53 1 70 71
M  V30 54 1 71 72
M  V30 55 1 73 74
M  V30 56 1 74 75
M  V30 57 1 76 77
M  V30 58 1 77 78
M  V30 59 1 79 80
M  V30 60 1 80 81
M  V30 61 1 82 83
M  V30 62 1 83 84
M  V30 63 1 85 86
M  V30 64 1 86 87
M  V30 65 1 88 89
M  V30 66 1 89 90
M  V30 67 1 91 92
M  V30 68 1 92 93
M  V30 69 1 94 95
M  V30 70 1 95 96
M  V30 71 1 97 98
M  V30 72 1 98 99
M  V30 73 1 2 49
M  V30 74 1 3 76
M  V30 75 1 4 67
M  V30 76 1 5 70
M  V30 77 1 7 46
M  V30 78 1 8 58
M  V30 79 1 9 94
M  V30 80 1 10 88
M  V30 81 1 12 91
M  V30 82 1 13 97
M  V30 83 1 14 64
M  V30 84 1 15 85
M  V30 85 1 17 66
M  V30 86 1 18 55
M  V30 87 1 19 82
M  V30 88 1 20 61
M  V30 89 1 22 48
M  V30 90 1 23 99
M  V30 91 1 24 84
M  V30 92 1 25 52
M  V30 93 1 27 57
M  V30 94 1 28 79
M  V30 95 1 29 69
M  V30 96 1 30 63
M  V30 97 1 32 51
M  V30 98 1 33 81
M  V30 99 1 34 87
M  V30 100 1 35 93
M  V30 101 1 37 54
M  V30 102 1 38 73
M  V30 103 1 39 96
M  V30 104 1 40 72
M  V30 105 1 42 60
M  V30 106 1 43 78
M  V30 107 1 44 75
M  V30 108 1 45 90
M  V30 END BOND
M  V30 END CTAB
M  END

$$$$
