
     RDKit          3D

  0  0  0  0  0  0  0  0  0  0999 V3000
M  V30 BEGIN CTAB
M  V30 COUNTS 99 108 0 0 0
M  V30 BEGIN ATOM
M  V30 1 Pd 2.4772 6.8648 -1.2185 0
M  V30 2 Pb 3.3830 6.7546 -0.8030 0
M  V30 3 Pb 2.2101 7.4053 -0.4244 0
M  V30 4 Pb 1.5809 7.0084 -1.6271 0
M  V30 5 Pb 2.6546 6.2216 -1.9700 0
M  V30 6 Pd -2.0219 3.0949 -5.5593 0
M  V30 7 Pb -2.0482 2.1346 -5.9074 0
M  V30 8 Pb -2.0193 4.0123 -5.1736 0
M  V30 9 Pb -1.0251 3.0967 -5.4254 0
M  V30 10 Pb -3.0084 3.1471 -5.6455 0
M  V30 11 Pd 5.6087 -3.2018 -0.5159 0
M  V30 12 Pb 5.9108 -3.5325 -1.4023 0
M  V30 13 Pb 5.1388 -4.0895 -0.3525 0
M  V30 14 Pb 5.9918 -2.3057 -0.7213 0
M  V30 15 Pb 5.3079 -2.8213 0.3621 0
M  V30 16 Pd -4.3919 -2.4223 -5.1989 0
M  V30 17 Pb -3.7345 -3.1739 -5.2549 0
M  V30 18 Pb -4.9694 -3.0070 -4.6310 0
M  V30 19 Pb -3.7636 -1.7803 -5.6853 0
M  V30 20 Pb -5.0979 -1.7261 -5.1948 0
M  V30 21 Pd 0.6181 4.7451 5.4158 0
M  V30 22 Pb 1.6084 4.8193 5.5317 0
M  V30 23 Pb 0.5992 3.8555 5.8697 0
M  V30 24 Pb 0.6345 5.6164 4.9286 0
M  V30 25 Pb -0.3641 4.6309 5.2605 0
M  V30 26 Pd 1.3637 -6.7626 -2.4394 0
M  V30 27 Pb 0.6487 -6.7309 -3.1348 0
M  V30 28 Pb 2.0975 -6.6698 -1.7414 0
M  V30 29 Pb 0.6772 -6.9336 -1.7312 0
M  V30 30 Pb 2.0431 -6.6567 -3.1558 0
M  V30 31 Pd -4.8365 -4.8992 1.9561 0
M  V30 32 Pb -4.4338 -4.9085 2.8705 0
M  V30 33 Pb -5.4648 -4.1810 2.2589 0
M  V30 34 Pb -4.1673 -5.5797 1.6578 0
M  V30 35 Pb -5.2498 -4.8992 1.0446 0
M  V30 36 Pd -3.9167 -0.9848 5.2601 0
M  V30 37 Pb -4.7546 -1.2016 4.7562 0
M  V30 38 Pb -3.7608 -1.9625 5.3891 0
M  V30 39 Pb -4.0320 -0.0011 5.1157 0
M  V30 40 Pb -3.0668 -0.7640 5.7368 0
M  V30 41 Pd 5.1180 3.5519 2.3441 0
M  V30 42 Pb 4.8398 3.9649 3.2149 0
M  V30 43 Pb 5.2913 4.4468 1.9318 0
M  V30 44 Pb 4.9399 2.6266 2.6874 0
M  V30 45 Pb 5.4683 3.1255 1.5146 0
M  V30 46 Ag 0.5173 3.1744 6.1700 0
M  V30 47 Fe -0.8813 1.2569 6.2007 0
M  V30 48 Ag -2.4310 -0.5356 6.0604 0
M  V30 49 Ag -1.0877 4.4634 5.1488 0
M  V30 50 Fe -2.6568 2.6809 5.0626 0
M  V30 51 Ag -4.0341 0.7448 5.0289 0
M  V30 52 Ag -5.3619 -3.4254 -4.1493 0
M  V30 53 Fe -5.5063 -4.1948 -1.9071 0
M  V30 54 Ag -5.5556 -4.9048 0.3588 0
M  V30 55 Ag -3.7420 3.0670 -5.6602 0
M  V30 56 Fe -5.1083 1.1625 -5.4704 0
M  V30 57 Ag -5.5411 -1.1371 -5.2363 0
M  V30 58 Ag 0.1571 -7.1031 -1.2166 0
M  V30 59 Fe -1.7431 -6.5724 0.1067 0
M  V30 60 Ag -3.6419 -6.0699 1.4430 0
M  V30 61 Ag 6.2059 -1.6034 -0.8519 0
M  V30 62 Fe 6.0512 0.6225 -0.0533 0
M  V30 63 Ag 5.7599 2.7565 0.9353 0
M  V30 64 Ag 5.1116 -2.4588 0.9927 0
M  V30 65 Fe 4.9289 -0.3215 2.0217 0
M  V30 66 Ag 4.8213 1.9028 2.8591 0
M  V30 67 Ag 2.6689 5.7062 -2.5228 0
M  V30 68 Fe 1.2811 4.3974 -3.9510 0
M  V30 69 Ag -0.2892 3.1924 -5.2781 0
M  V30 70 Ag -3.3013 -3.7849 -5.3024 0
M  V30 71 Fe -1.5896 -5.2181 -4.4941 0
M  V30 72 Ag 0.1297 -6.6296 -3.6640 0
M  V30 73 Ag 0.9247 7.0774 -1.9736 0
M  V30 74 Fe -0.6127 5.9855 -3.4069 0
M  V30 75 Ag -1.9714 4.6756 -4.8380 0
M  V30 76 Ag 5.9976 -3.8312 -2.0726 0
M  V30 77 Fe 4.5737 -5.2515 -3.2926 0
M  V30 78 Ag 2.6199 -6.5256 -3.5996 0
M  V30 79 Ag 1.9756 7.7140 0.2139 0
M  V30 80 Fe 1.3056 7.1275 2.4120 0
M  V30 81 Ag 0.6931 6.2445 4.5263 0
M  V30 82 Ba 4.7958 -4.7646 -0.2273 0
M  V30 83 Ga 3.7054 -5.6361 -0.7667 0
M  V30 84 Ba 2.6455 -6.5951 -1.2099 0
M  V30 85 Ba -2.0644 1.4219 -6.2021 0
M  V30 86 Ga -2.7160 0.0780 -6.0591 0
M  V30 87 Ba -3.2686 -1.3169 -6.0525 0
M  V30 88 Ba -5.9034 -3.6230 2.5050 0
M  V30 89 Ga -5.6630 -2.4996 3.4334 0
M  V30 90 Ba -5.3690 -1.3950 4.3689 0
M  V30 91 Ba 2.3529 4.8854 5.5935 0
M  V30 92 Ga 3.5036 4.5661 4.7241 0
M  V30 93 Ba 4.6833 4.2643 3.8880 0
M  V30 94 Ba -4.1440 -4.9006 3.5612 0
M  V30 95 Ga -3.8829 -3.8207 4.5284 0
M  V30 96 Ba -3.6447 -2.6990 5.4530 0
M  V30 97 Ba 4.0492 6.7374 -0.4529 0
M  V30 98 Ga 4.7300 5.9007 0.5569 0
M  V30 99 Ba 5.4387 5.0847 1.5644 0
M  V30 END ATOM
M  V30 BEGIN BOND
M  V30 1 1 1 2
M  V30 2 1 1 3
M  V30 3 1 1 4
M  V30 4 1 1 5
M  V30 5 1 6 7
M  V30 6 1 6 8
M  V30 7 1 6 9
M  V30 8 1 6 10
M  V30 9 1 11 12
M  V30 10 1 11 13
M  V30 11 1 11 14
M  V30 12 1 11 15
M  V30 13 1 16 17
M  V30 14 1 16 18
M  V30 15 1 16 19
M  V30 16 1 16 20
M  V30 17 1 21 22
M  V30 18 1 21 23
M  V30 19 1 21 24
M  V30 20 1 21 25
M  V30 21 1 26 27
M  V30 22 1 26 28
M  V30 23 1 26 29
M  V30 24 1 26 30
M  V30 25 1 31 32
M  V30 26 1 31 33
M  V30 27 1 31 34
M  V30 28 1 31 35
M  V30 29 1 36 37
M  V30 30 1 36 38
M  V30 31 1 36 39
M  V30 32 1 36 40
M  V30 33 1 41 42
M  V30 34 1 41 43
M  V30 35 1 41 44
M  V30 36 1 41 45
M  V30 37 1 46 47
M  V30 38 1 47 48
M  V30 39 1 49 50
M  V30 40 1 50 51
M  V30 41 1 52 53
M  V30 42 1 53 54
M  V30 43 1 55 56
M  V30 44 1 56 57
M  V30 45 1 58 59
M  V30 46 1 59 60
M  V30 47 1 61 62
M  V30 48 1 62 63
M  V30 49 1 64 65
M  V30 50 1 65 66
M  V30 51 1 67 68
M  V30 52 1 68 69
M  V30 53 1 70 71
M  V30 54 1 71 72
M  V30 55 1 73 74
M  V30 56 1 74 75
M  V30 57 1 76 77
M  V30 58 1 77 78
M  V30 59 1 79 80
M  V30 60 1 80 81
M  V30 61 1 82 83
M  V30 62 1 83 84
M  V30 63 1 85 86
M  V30 64 1 86 87
M  V30 65 1 88 89
M  V30 66 1 89 90
M  V30 67 1 91 92
M  V30 68 1 92 93
M  V30 69 1 94 95
M  V30 70 1 95 96
M  V30 71 1 97 98
M  V30 72 1 98 99
M  V30 73 1 2 97
M  V30 74 1 3 79
M  V30 75 1 4 73
M  V30 76 1 5 67
M  V30 77 1 7 85
M  V30 78 1 8 75
M  V30 79 1 9 69
M  V30 80 1 10 55
M  V30 81 1 12 76
M  V30 82 1 13 82
M  V30 83 1 14 61
M  V30 84 1 15 64
M  V30 85 1 17 70
M  V30 86 1 18 52
M  V30 87 1 19 87
M  V30 88 1 20 57
M  V30 89 1 22 91
M  V30 90 1 23 46
M  V30 91 1 24 81
M  V30 92 1 25 49
M  V30 93 1 27 72
M  V30 94 1 28 84
M  V30 95 1 29 58
M  V30 96 1 30 78
M  V30 97 1 32 94
M  V30 98 1 33 88
M  V30 99 1 34 60
M  V30 100 1 35 54
M  V30 101 1 37 90
M  V30 102 1 38 96
M  V30 103 1 39 51
M  V30 104 1 40 48
M  V30 105 1 42 93
M  V30 106 1 43 99
M  V30 107 1 44 66
M  V30 108 1 45 63
M  V30 END BOND
M  V30 END CTAB
M  END

$$$$
