
     RDKit          3D

  0  0  0  0  0  0  0  0  0  0999 V3000
M  V30 BEGIN CTAB
M  V30 COUNTS 99 108 0 0 0
M  V30 BEGIN ATOM
M  V30 1 Pd 1.5541 -0.6338 3.4805 0
M  V30 2 Pb 1.8498 -1.5833 3.5461 0
M  V30 3 Pb 1.1946 0.2938 3.3631 0
M  V30 4 Pb 2.2953 -0.3265 4.0816 0
M  V30 5 Pb 0.8697 -0.9589 2.8360 0
M  V30 6 Pd -7.2708 4.0377 1.9932 0
M  V30 7 Pb -6.7936 4.0954 1.1169 0
M  V30 8 Pb -7.7645 3.9810 2.8568 0
M  V30 9 Pb -7.8800 3.3351 1.6309 0
M  V30 10 Pb -6.5213 4.5442 2.4512 0
M  V30 11 Pd 2.0181 -2.2976 -4.9561 0
M  V30 12 Pb 1.9941 -3.1349 -4.3702 0
M  V30 13 Pb 1.0213 -2.1767 -4.8576 0
M  V30 14 Pb 2.1233 -1.4840 -5.5287 0
M  V30 15 Pb 2.9755 -2.4756 -5.1451 0
M  V30 16 Pd 4.2804 2.4361 -4.0081 0
M  V30 17 Pb 4.0689 1.9372 -4.8501 0
M  V30 18 Pb 5.1017 1.9060 -3.7988 0
M  V30 19 Pb 3.4224 2.9133 -4.1563 0
M  V30 20 Pb 4.4211 2.8990 -3.1331 0
M  V30 21 Pd -3.0586 0.7090 -3.6315 0
M  V30 22 Pb -3.5441 1.5059 -3.2739 0
M  V30 23 Pb -2.5670 -0.1000 -3.9761 0
M  V30 24 Pb -2.3118 1.3224 -3.8707 0
M  V30 25 Pb -3.8557 0.1479 -3.4057 0
M  V30 26 Pd 6.6020 0.1960 2.3851 0
M  V30 27 Pb 6.9856 0.1325 1.4625 0
M  V30 28 Pb 6.9134 -0.7369 2.5625 0
M  V30 29 Pb 6.1353 0.2530 3.2701 0
M  V30 30 Pb 6.2628 1.0982 2.1243 0
M  V30 31 Pd 4.7457 -5.6969 -0.8494 0
M  V30 32 Pb 4.1551 -5.6783 -0.0469 0
M  V30 33 Pb 5.5033 -5.6286 -0.2033 0
M  V30 34 Pb 5.3755 -5.6504 -1.6149 0
M  V30 35 Pb 3.9549 -5.6073 -1.4888 0
M  V30 36 Pd -5.6294 -0.7628 0.9405 0
M  V30 37 Pb -5.8312 -0.8162 -0.0378 0
M  V30 38 Pb -5.3627 -0.8009 1.9124 0
M  V30 39 Pb -6.5339 -0.3462 1.0823 0
M  V30 40 Pb -4.7318 -1.1486 0.7613 0
M  V30 41 Pd -3.1482 2.1291 4.7226 0
M  V30 42 Pb -3.8836 2.0925 5.3925 0
M  V30 43 Pb -2.3332 2.1941 4.1398 0
M  V30 44 Pb -3.1814 1.1323 4.6979 0
M  V30 45 Pb -3.3586 3.1047 4.5577 0
M  V30 46 Ag -6.4474 4.1390 0.4536 0
M  V30 47 Fe -5.1728 3.1239 -1.2733 0
M  V30 48 Ag -3.8982 2.1063 -2.9987 0
M  V30 49 Ag 1.9983 -2.3141 3.5035 0
M  V30 50 Fe 2.8732 -4.0373 2.1294 0
M  V30 51 Ag 3.7994 -5.5999 0.6051 0
M  V30 52 Ag 2.7389 3.1798 -4.2720 0
M  V30 53 Fe 0.4528 2.5688 -4.1711 0
M  V30 54 Ag -1.7954 1.8366 -4.0312 0
M  V30 55 Ag 5.6875 1.5291 -3.5212 0
M  V30 56 Fe 6.5718 0.7551 -1.4567 0
M  V30 57 Ag 7.1987 0.1112 0.7425 0
M  V30 58 Ag 3.6741 -2.6997 -5.2372 0
M  V30 59 Fe 5.1246 -4.1015 -4.0255 0
M  V30 60 Ag 5.7511 -5.4825 -2.2275 0
M  V30 61 Ag -7.9812 3.8530 3.5525 0
M  V30 62 Fe -6.6257 2.9434 5.2399 0
M  V30 63 Ag -4.4950 2.1350 5.8087 0
M  V30 64 Ag 4.5331 3.1744 -2.4449 0
M  V30 65 Fe 5.2476 2.6038 -0.2542 0
M  V30 66 Ag 6.0107 1.7329 1.8179 0
M  V30 67 Ag 0.3826 -1.2259 2.3395 0
M  V30 68 Fe -1.8152 -1.3485 1.4667 0
M  V30 69 Ag -4.0421 -1.4074 0.6637 0
M  V30 70 Ag 7.1218 -1.4561 2.5904 0
M  V30 71 Fe 6.7035 -3.5557 1.5663 0
M  V30 72 Ag 6.0050 -5.4521 0.3226 0
M  V30 73 Ba -4.4865 -0.2251 -3.2423 0
M  V30 74 Ga -5.2172 -0.5641 -2.0055 0
M  V30 75 Ba -5.9532 -0.9066 -0.7728 0
M  V30 76 Ba -5.9294 4.8577 2.8218 0
M  V30 77 Ga -4.7632 4.3358 3.5996 0
M  V30 78 Ba -3.5994 3.8065 4.3762 0
M  V30 79 Ba 1.9661 -3.7886 -3.9611 0
M  V30 80 Ga 2.7159 -4.6046 -2.9492 0
M  V30 81 Ba 3.3403 -5.5317 -1.9479 0
M  V30 82 Ba 2.3114 -0.9018 -5.9650 0
M  V30 83 Ga 3.0576 0.3517 -5.7281 0
M  V30 84 Ba 3.8060 1.5994 -5.4686 0
M  V30 85 Ba -8.2618 2.7188 1.4414 0
M  V30 86 Ga -7.7677 1.3358 1.2593 0
M  V30 87 Ba -7.2206 -0.0293 1.0925 0
M  V30 88 Ba 2.8782 -0.1171 4.5094 0
M  V30 89 Ga 4.3146 0.0989 4.2326 0
M  V30 90 Ba 5.7430 0.3038 3.9099 0
M  V30 91 Ba -5.0513 -0.9380 2.5922 0
M  V30 92 Ga -4.2105 -0.2661 3.6134 0
M  V30 93 Ba -3.3798 0.4109 4.6395 0
M  V30 94 Ba 0.8825 0.9617 3.2138 0
M  V30 95 Ga -0.4141 1.6152 3.4990 0
M  V30 96 Ba -1.6950 2.3103 3.7545 0
M  V30 97 Ba 0.2631 -2.1794 -4.8359 0
M  V30 98 Ga -0.9405 -1.3775 -4.5030 0
M  V30 99 Ba -2.2527 -0.7403 -4.2293 0
M  V30 END ATOM
M  V30 BEGIN BOND
M  V30 1 1 1 2
M  V30 2 1 1 3
M  V30 3 1 1 4
M  V30 4 1 1 5
M  V30 5 1 6 7
M  V30 6 1 6 8
M  V30 7 1 6 9
M  V30 8 1 6 10
M  V30 9 1 11 12
M  V30 10 1 11 13
M  V30 11 1 11 14
M  V30 12 1 11 15
M  V30 13 1 16 17
M  V30 14 1 16 18
M  V30 15 1 16 19
M  V30 16 1 16 20
M  V30 17 1 21 22
M  V30 18 1 21 23
M  V30 19 1 21 24
M  V30 20 1 21 25
M  V30 21 1 26 27
M  V30 22 1 26 28
M  V30 23 1 26 29
M  V30 24 1 26 30
M  V30 25 1 31 32
M  V30 26 1 31 33
M  V30 27 1 31 34
M  V30 28 1 31 35
M  V30 29 1 36 37
M  V30 30 1 36 38
M  V30 31 1 36 39
M  V30 32 1 36 40
M  V30 33 1 41 42
M  V30 34 1 41 43
M  V30 35 1 41 44
M  V30 36 1 41 45
M  V30 37 1 46 47
M  V30 38 1 47 48
M  V30 39 1 49 50
M  V30 40 1 50 51
M  V30 41 1 52 53
M  V30 42 1 53 54
M  V30 43 1 55 56
M  V30 44 1 56 57
M  V30 45 1 58 59
M  V30 46 1 59 60
M  V30 47 1 61 62
M  V30 48 1 62 63
M  V30 49 1 64 65
M  V30 50 1 65 66
M  V30 51 1 67 68
M  V30 52 1 68 69
M  V30 53 1 70 71
M  V30 54 1 71 72
M  V30 55 1 73 74
M  V30 56 1 74 75
M  V30 57 1 76 77
M  V30 58 1 77 78
M  V30 59 1 79 80
M  V30 60 1 80 81
M  V30 61 1 82 83
M  V30 62 1 83 84
M  V30 63 1 85 86
M  V30 64 1 86 87
M  V30 65 1 88 89
M  V30 66 1 89 90
M  V30 67 1 91 92
M  V30 68 1 92 93
M  V30 69 1 94 95
M  V30 70 1 95 96
M  V30 71 1 97 98
M  V30 72 1 98 99
M  V30 73 1 2 49
M  V30 74 1 3 94
M  V30 75 1 4 88
M  V30 76 1 5 67
M  V30 77 1 7 46
M  V30 78 1 8 61
M  V30 79 1 9 85
M  V30 80 1 10 76
M  V30 81 1 12 79
M  V30 82 1 13 97
M  V30 83 1 14 82
M  V30 84 1 15 58
M  V30 85 1 17 84
M  V30 86 1 18 55
M  V30 87 1 19 52
M  V30 88 1 20 64
M  V30 89 1 22 48
M  V30 90 1 23 99
M  V30 91 1 24 54
M  V30 92 1 25 73
M  V30 93 1 27 57
M  V30 94 1 28 70
M  V30 95 1 29 90
M  V30 96 1 30 66
M  V30 97 1 32 51
M  V30 98 1 33 72
M  V30 99 1 34 60
M  V30 100 1 35 81
M  V30 101 1 37 75
M  V30 102 1 38 91
M  V30 103 1 39 87
M  V30 104 1 40 69
M  V30 105 1 42 63
M  V30 106 1 43 96
M  V30 107 1 44 93
M  V30 108 1 45 78
M  V30 END BOND
M  V30 END CTAB
M  END

$$$$
