
     RDKit          3D

  0  0  0  0  0  0  0  0  0  0999 V3000
M  V30 BEGIN CTAB
M  V30 COUNTS 99 108 0 0 0
M  V30 BEGIN ATOM
M  V30 1 Pd 8.6984 4.7378 5.2933 0
M  V30 2 Pb 9.2565 3.9230 5.1471 0
M  V30 3 Pb 8.9152 5.0800 4.3807 0
M  V30 4 Pb 8.3520 4.3212 6.1313 0
M  V30 5 Pb 8.0338 5.4798 5.3630 0
M  V30 6 Pd -6.9501 -7.1651 0.0758 0
M  V30 7 Pb -7.5081 -6.3359 0.0878 0
M  V30 8 Pb -7.3377 -7.3473 -0.8268 0
M  V30 9 Pb -6.4436 -6.8734 0.9020 0
M  V30 10 Pb -6.3814 -7.9817 0.0401 0
M  V30 11 Pd -0.5102 2.7006 1.1439 0
M  V30 12 Pb -1.0500 2.9053 0.3275 0
M  V30 13 Pb -0.9466 1.8008 1.2161 0
M  V30 14 Pb 0.0344 2.4828 1.9548 0
M  V30 15 Pb -0.1641 3.6422 1.1106 0
M  V30 16 Pd -1.7358 -5.2371 1.4094 0
M  V30 17 Pb -1.5921 -6.2169 1.3056 0
M  V30 18 Pb -0.8714 -5.0659 0.9395 0
M  V30 19 Pb -1.9162 -4.2536 1.4780 0
M  V30 20 Pb -2.6413 -5.4375 1.8216 0
M  V30 21 Pd 6.2540 0.8231 4.5720 0
M  V30 22 Pb 5.2600 0.9318 4.6063 0
M  V30 23 Pb 6.3341 1.1918 5.4997 0
M  V30 24 Pb 6.2037 0.4924 3.6279 0
M  V30 25 Pb 7.2535 0.7801 4.5379 0
M  V30 26 Pd 2.9302 -0.5019 -2.5293 0
M  V30 27 Pb 2.2282 -0.5675 -3.2413 0
M  V30 28 Pb 3.0940 0.4506 -2.7813 0
M  V30 29 Pb 3.6581 -0.4601 -1.8423 0
M  V30 30 Pb 2.7462 -1.4374 -2.2345 0
M  V30 31 Pd -4.2443 0.6470 -5.4388 0
M  V30 32 Pb -3.9138 1.3252 -4.7827 0
M  V30 33 Pb -5.1805 0.9600 -5.2880 0
M  V30 34 Pb -4.6005 -0.0237 -6.0936 0
M  V30 35 Pb -3.3090 0.3129 -5.5636 0
M  V30 36 Pd 3.9212 6.3489 0.4383 0
M  V30 37 Pb 4.0493 6.7567 1.3418 0
M  V30 38 Pb 2.9291 6.3304 0.5640 0
M  V30 39 Pb 3.8294 5.8901 -0.4438 0
M  V30 40 Pb 4.9184 6.3394 0.3631 0
M  V30 41 Pd -8.3292 -2.3092 -4.9162 0
M  V30 42 Pb -8.3117 -1.3116 -4.8709 0
M  V30 43 Pb -8.7431 -2.3738 -4.0104 0
M  V30 44 Pb -7.7949 -2.2586 -5.7600 0
M  V30 45 Pb -8.3400 -3.3103 -4.9310 0
M  V30 46 Ag 8.9390 5.3177 3.6713 0
M  V30 47 Fe 7.4458 5.8659 1.9093 0
M  V30 48 Ag 5.6670 6.3262 0.4060 0
M  V30 49 Ag 6.2033 0.2621 2.9124 0
M  V30 50 Fe 5.1601 -0.0822 0.8046 0
M  V30 51 Ag 4.2208 -0.4711 -1.3439 0
M  V30 52 Ag 1.7232 -0.6214 -3.7959 0
M  V30 53 Fe -0.4457 -0.2743 -4.7037 0
M  V30 54 Ag -2.6058 0.0599 -5.6370 0
M  V30 55 Ag -5.8361 -8.4839 0.0668 0
M  V30 56 Fe -3.5536 -8.2071 0.5855 0
M  V30 57 Ag -1.6541 -6.9457 1.1823 0
M  V30 58 Ag -0.2411 -4.9621 0.5487 0
M  V30 59 Fe 1.1951 -3.5547 -0.7116 0
M  V30 60 Ag 2.6118 -2.1226 -1.9663 0
M  V30 61 Ag -1.4433 3.0755 -0.2878 0
M  V30 62 Fe -2.5580 2.4383 -2.2855 0
M  V30 63 Ag -3.6822 1.8410 -4.2903 0
M  V30 64 Ag -7.5824 -7.3486 -1.5351 0
M  V30 65 Fe -8.0215 -5.8260 -3.3046 0
M  V30 66 Ag -8.3651 -4.0569 -4.8523 0
M  V30 67 Ag -1.3309 1.1600 1.3069 0
M  V30 68 Fe -1.6214 -1.1982 1.3911 0
M  V30 69 Ag -2.0964 -3.5245 1.5174 0
M  V30 70 Ag -7.9289 -5.7207 0.0113 0
M  V30 71 Fe -8.5545 -4.0319 -1.5344 0
M  V30 72 Ag -8.9581 -2.5059 -3.3063 0
M  V30 73 Ag 0.4283 2.2801 2.5609 0
M  V30 74 Fe 2.4791 1.6672 3.5919 0
M  V30 75 Ag 4.5200 1.0523 4.6412 0
M  V30 76 Ag 7.4843 5.9846 5.3039 0
M  V30 77 Fe 5.7878 6.6413 3.7796 0
M  V30 78 Ag 4.2342 7.0083 2.0231 0
M  V30 79 Ag 3.1979 1.1756 -2.9367 0
M  V30 80 Fe 3.4905 3.3687 -2.0781 0
M  V30 81 Ag 3.7749 5.5043 -1.0828 0
M  V30 82 Ba 8.0283 3.9343 6.6836 0
M  V30 83 Ga 7.2199 2.7119 6.5224 0
M  V30 84 Ba 6.4468 1.5059 6.1729 0
M  V30 85 Ba -5.8934 1.1546 -5.1685 0
M  V30 86 Ga -7.1059 0.3353 -5.0027 0
M  V30 87 Ba -8.2613 -0.5650 -4.8491 0
M  V30 88 Ba 0.0018 4.3769 1.0769 0
M  V30 89 Ga 1.1321 5.3065 0.8728 0
M  V30 90 Ba 2.1879 6.3227 0.6804 0
M  V30 91 Ba -6.0396 -6.6333 1.5026 0
M  V30 92 Ga -4.6652 -6.1210 1.7794 0
M  V30 93 Ba -3.3149 -5.6004 2.1449 0
M  V30 94 Ba -4.9103 -0.5122 -6.5753 0
M  V30 95 Ga -6.1135 -1.3666 -6.5022 0
M  V30 96 Ba -7.3302 -2.1898 -6.3450 0
M  V30 97 Ba 9.5749 3.2583 5.0173 0
M  V30 98 Ga 8.8707 1.9876 4.7665 0
M  V30 99 Ba 8.0035 0.8176 4.5365 0
M  V30 END ATOM
M  V30 BEGIN BOND
M  V30 1 1 1 2
M  V30 2 1 1 3
M  V30 3 1 1 4
M  V30 4 1 1 5
M  V30 5 1 6 7
M  V30 6 1 6 8
M  V30 7 1 6 9
M  V30 8 1 6 10
M  V30 9 1 11 12
M  V30 10 1 11 13
M  V30 11 1 11 14
M  V30 12 1 11 15
M  V30 13 1 16 17
M  V30 14 1 16 18
M  V30 15 1 16 19
M  V30 16 1 16 20
M  V30 17 1 21 22
M  V30 18 1 21 23
M  V30 19 1 21 24
M  V30 20 1 21 25
M  V30 21 1 26 27
M  V30 22 1 26 28
M  V30 23 1 26 29
M  V30 24 1 26 30
M  V30 25 1 31 32
M  V30 26 1 31 33
M  V30 27 1 31 34
M  V30 28 1 31 35
M  V30 29 1 36 37
M  V30 30 1 36 38
M  V30 31 1 36 39
M  V30 32 1 36 40
M  V30 33 1 41 42
M  V30 34 1 41 43
M  V30 35 1 41 44
M  V30 36 1 41 45
M  V30 37 1 46 47
M  V30 38 1 47 48
M  V30 39 1 49 50
M  V30 40 1 50 51
M  V30 41 1 52 53
M  V30 42 1 53 54
M  V30 43 1 55 56
M  V30 44 1 56 57
M  V30 45 1 58 59
M  V30 46 1 59 60
M  V30 47 1 61 62
M  V30 48 1 62 63
M  V30 49 1 64 65
M  V30 50 1 65 66
M  V30 51 1 67 68
M  V30 52 1 68 69
M  V30 53 1 70 71
M  V30 54 1 71 72
M  V30 55 1 73 74
M  V30 56 1 74 75
M  V30 57 1 76 77
M  V30 58 1 77 78
M  V30 59 1 79 80
M  V30 60 1 80 81
M  V30 61 1 82 83
M  V30 62 1 83 84
M  V30 63 1 85 86
M  V30 64 1 86 87
M  V30 65 1 88 89
M  V30 66 1 89 90
M  V30 67 1 91 92
M  V30 68 1 92 93
M  V30 69 1 94 95
M  V30 70 1 95 96
M  V30 71 1 97 98
M  V30 72 1 98 99
M  V30 73 1 2 97
M  V30 74 1 3 46
M  V30 75 1 4 82
M  V30 76 1 5 76
M  V30 77 1 7 70
M  V30 78 1 8 64
M  V30 79 1 9 91
M  V30 80 1 10 55
M  V30 81 1 12 61
M  V30 82 1 13 67
M  V30 83 1 14 73
M  V30 84 1 15 88
M  V30 85 1 17 57
M  V30 86 1 18 58
M  V30 87 1 19 69
M  V30 88 1 20 93
M  V30 89 1 22 75
M  V30 90 1 23 84
M  V30 91 1 24 49
M  V30 92 1 25 99
M  V30 93 1 27 52
M  V30 94 1 28 79
M  V30 95 1 29 51
M  V30 96 1 30 60
M  V30 97 1 32 63
M  V30 98 1 33 85
M  V30 99 1 34 94
M  V30 100 1 35 54
M  V30 101 1 37 78
M  V30 102 1 38 90
M  V30 103 1 39 81
M  V30 104 1 40 48
M  V30 105 1 42 87
M  V30 106 1 43 72
M  V30 107 1 44 96
M  V30 108 1 45 66
M  V30 END BOND
M  V30 END CTAB
M  END

$$$$
