
     RDKit          3D

  0  0  0  0  0  0  0  0  0  0999 V3000
M  V30 BEGIN CTAB
M  V30 COUNTS 99 108 0 0 0
M  V30 BEGIN ATOM
M  V30 1 Pd 4.5625 3.1628 -0.0978 0
M  V30 2 Pb 4.8622 3.4191 0.8226 0
M  V30 3 Pb 5.5200 2.9549 -0.2900 0
M  V30 4 Pb 3.5981 3.3136 0.1372 0
M  V30 5 Pb 4.3277 2.8511 -1.0180 0
M  V30 6 Pd -5.8334 2.0983 -0.0430 0
M  V30 7 Pb -5.4764 1.2847 0.4140 0
M  V30 8 Pb -6.7305 1.6428 -0.0798 0
M  V30 9 Pb -4.9350 2.5377 -0.0153 0
M  V30 10 Pb -6.1398 2.9004 -0.5551 0
M  V30 11 Pd -0.5246 -3.7507 -0.4117 0
M  V30 12 Pb -0.3532 -3.5116 -1.3721 0
M  V30 13 Pb 0.4657 -3.7397 -0.2506 0
M  V30 14 Pb -0.6972 -3.9475 0.5539 0
M  V30 15 Pb -1.5179 -3.8113 -0.5464 0
M  V30 16 Pd -4.6090 2.8782 -4.7891 0
M  V30 17 Pb -4.3650 2.0760 -5.3305 0
M  V30 18 Pb -4.0070 2.5357 -4.0665 0
M  V30 19 Pb -5.4147 2.9873 -5.3640 0
M  V30 20 Pb -4.9717 3.5873 -4.1838 0
M  V30 21 Pd -7.7825 -1.9714 -2.8386 0
M  V30 22 Pb -7.2411 -2.2712 -3.6207 0
M  V30 23 Pb -7.2252 -2.5548 -2.2465 0
M  V30 24 Pb -8.2100 -1.5141 -2.0559 0
M  V30 25 Pb -8.2473 -1.3370 -3.4586 0
M  V30 26 Pd 9.3924 0.0686 3.9763 0
M  V30 27 Pb 9.1640 -0.2628 4.8883 0
M  V30 28 Pb 9.5227 0.3849 3.0392 0
M  V30 29 Pb 9.6554 -0.8648 3.7310 0
M  V30 30 Pb 8.9522 0.9478 4.1598 0
M  V30 31 Pd 0.3945 0.8733 -2.8291 0
M  V30 32 Pb 0.4350 -0.0532 -3.2091 0
M  V30 33 Pb 1.3519 1.0542 -3.0397 0
M  V30 34 Pb 0.2826 1.7464 -2.3654 0
M  V30 35 Pb -0.5752 0.7783 -2.6287 0
M  V30 36 Pd 5.8767 -2.9508 4.0823 0
M  V30 37 Pb 5.4397 -3.1785 3.2090 0
M  V30 38 Pb 6.3165 -2.6958 4.9426 0
M  V30 39 Pb 6.7619 -3.3036 3.7718 0
M  V30 40 Pb 5.0436 -2.4894 4.3803 0
M  V30 41 Pd -1.3556 -0.2947 2.9056 0
M  V30 42 Pb -1.4647 -1.2520 3.1657 0
M  V30 43 Pb -1.1550 0.6228 2.5563 0
M  V30 44 Pb -2.2379 -0.3549 2.4359 0
M  V30 45 Pb -0.5059 -0.2841 3.4278 0
M  V30 46 Ag 6.2389 2.7578 -0.3529 0
M  V30 47 Fe 8.0030 1.7268 0.8515 0
M  V30 48 Ag 9.5063 0.6625 2.3456 0
M  V30 49 Ag 4.4547 -2.0814 4.5956 0
M  V30 50 Fe 2.2815 -1.2079 4.2168 0
M  V30 51 Ag 0.1086 -0.3282 3.8513 0
M  V30 52 Ag 1.2113 -3.7578 -0.1445 0
M  V30 53 Fe 3.1450 -3.5371 1.2228 0
M  V30 54 Ag 5.1073 -3.3281 2.5503 0
M  V30 55 Ag -2.2663 -3.9047 -0.5660 0
M  V30 56 Fe -4.5000 -3.4172 -1.2212 0
M  V30 57 Ag -6.7532 -2.9778 -1.8434 0
M  V30 58 Ag -4.3122 1.3974 -5.6367 0
M  V30 59 Fe -5.3712 -0.6734 -5.1924 0
M  V30 60 Ag -6.7658 -2.3058 -4.1943 0
M  V30 61 Ag -4.2644 2.8730 -0.0463 0
M  V30 62 Fe -2.0602 2.7780 -0.9186 0
M  V30 63 Ag 0.0204 2.3110 -1.9564 0
M  V30 64 Ag 2.8758 3.3938 0.3382 0
M  V30 65 Fe 0.9350 2.4029 1.2930 0
M  V30 66 Ag -0.9208 1.2762 2.2657 0
M  V30 67 Ag 5.1840 3.5495 1.4890 0
M  V30 68 Fe 6.8345 2.6912 2.9678 0
M  V30 69 Ag 8.5257 1.5641 4.1991 0
M  V30 70 Ag -6.0998 2.8572 -5.6256 0
M  V30 71 Fe -7.5769 1.1103 -5.0041 0
M  V30 72 Ag -8.4726 -0.8162 -3.9498 0
M  V30 73 Ba -3.7066 2.1474 -3.4955 0
M  V30 74 Ga -2.4741 1.4979 -3.0114 0
M  V30 75 Ba -1.2948 0.8220 -2.4378 0
M  V30 76 Ba -6.2640 3.5136 -0.9691 0
M  V30 77 Ga -5.8177 3.8391 -2.3380 0
M  V30 78 Ba -5.3227 4.0543 -3.7120 0
M  V30 79 Ba 8.9171 -0.5660 5.5241 0
M  V30 80 Ga 7.8094 -1.5257 5.6441 0
M  V30 81 Ba 6.6849 -2.4694 5.5540 0
M  V30 82 Ba -0.8683 -4.0503 1.2772 0
M  V30 83 Ga -1.1896 -3.0735 2.3328 0
M  V30 84 Ba -1.4867 -1.9899 3.2862 0
M  V30 85 Ba -7.3849 1.2621 -0.0717 0
M  V30 86 Ga -7.9459 0.0859 -0.7787 0
M  V30 87 Ba -8.4890 -1.0906 -1.4990 0
M  V30 88 Ba 4.2144 2.5822 -1.7089 0
M  V30 89 Ga 3.1313 1.9111 -2.4478 0
M  V30 90 Ba 2.0572 1.2405 -3.2003 0
M  V30 91 Ba 9.7278 -1.5896 3.5491 0
M  V30 92 Ga 8.6544 -2.6052 3.5307 0
M  V30 93 Ba 7.4648 -3.4813 3.5705 0
M  V30 94 Ba -0.1880 -3.3197 -2.0830 0
M  V30 95 Ga 0.1170 -2.0495 -2.7794 0
M  V30 96 Ba 0.4177 -0.7654 -3.4517 0
M  V30 97 Ba -5.2289 0.6466 0.7183 0
M  V30 98 Ga -4.0383 0.1409 1.4282 0
M  V30 99 Ba -2.9147 -0.4962 2.1411 0
M  V30 END ATOM
M  V30 BEGIN BOND
M  V30 1 1 1 2
M  V30 2 1 1 3
M  V30 3 1 1 4
M  V30 4 1 1 5
M  V30 5 1 6 7
M  V30 6 1 6 8
M  V30 7 1 6 9
M  V30 8 1 6 10
M  V30 9 1 11 12
M  V30 10 1 11 13
M  V30 11 1 11 14
M  V30 12 1 11 15
M  V30 13 1 16 17
M  V30 14 1 16 18
M  V30 15 1 16 19
M  V30 16 1 16 20
M  V30 17 1 21 22
M  V30 18 1 21 23
M  V30 19 1 21 24
M  V30 20 1 21 25
M  V30 21 1 26 27
M  V30 22 1 26 28
M  V30 23 1 26 29
M  V30 24 1 26 30
M  V30 25 1 31 32
M  V30 26 1 31 33
M  V30 27 1 31 34
M  V30 28 1 31 35
M  V30 29 1 36 37
M  V30 30 1 36 38
M  V30 31 1 36 39
M  V30 32 1 36 40
M  V30 33 1 41 42
M  V30 34 1 41 43
M  V30 35 1 41 44
M  V30 36 1 41 45
M  V30 37 1 46 47
M  V30 38 1 47 48
M  V30 39 1 49 50
M  V30 40 1 50 51
M  V30 41 1 52 53
M  V30 42 1 53 54
M  V30 43 1 55 56
M  V30 44 1 56 57
M  V30 45 1 58 59
M  V30 46 1 59 60
M  V30 47 1 61 62
M  V30 48 1 62 63
M  V30 49 1 64 65
M  V30 50 1 65 66
M  V30 51 1 67 68
M  V30 52 1 68 69
M  V30 53 1 70 71
M  V30 54 1 71 72
M  V30 55 1 73 74
M  V30 56 1 74 75
M  V30 57 1 76 77
M  V30 58 1 77 78
M  V30 59 1 79 80
M  V30 60 1 80 81
M  V30 61 1 82 83
M  V30 62 1 83 84
M  V30 63 1 85 86
M  V30 64 1 86 87
M  V30 65 1 88 89
M  V30 66 1 89 90
M  V30 67 1 91 92
M  V30 68 1 92 93
M  V30 69 1 94 95
M  V30 70 1 95 96
M  V30 71 1 97 98
M  V30 72 1 98 99
M  V30 73 1 2 67
M  V30 74 1 3 46
M  V30 75 1 4 64
M  V30 76 1 5 88
M  V30 77 1 7 97
M  V30 78 1 8 85
M  V30 79 1 9 61
M  V30 80 1 10 76
M  V30 81 1 12 94
M  V30 82 1 13 52
M  V30 83 1 14 82
M  V30 84 1 15 55
M  V30 85 1 17 58
M  V30 86 1 18 73
M  V30 87 1 19 70
M  V30 88 1 20 78
M  V30 89 1 22 60
M  V30 90 1 23 57
M  V30 91 1 24 87
M  V30 92 1 25 72
M  V30 93 1 27 79
M  V30 94 1 28 48
M  V30 95 1 29 91
M  V30 96 1 30 69
M  V30 97 1 32 96
M  V30 98 1 33 90
M  V30 99 1 34 63
M  V30 100 1 35 75
M  V30 101 1 37 54
M  V30 102 1 38 81
M  V30 103 1 39 93
M  V30 104 1 40 49
M  V30 105 1 42 84
M  V30 106 1 43 66
M  V30 107 1 44 99
M  V30 108 1 45 51
M  V30 END BOND
M  V30 END CTAB
M  END

$$$$
