
     RDKit          3D

  0  0  0  0  0  0  0  0  0  0999 V3000
M  V30 BEGIN CTAB
M  V30 COUNTS 99 108 0 0 0
M  V30 BEGIN ATOM
M  V30 1 Pd -2.0065 -1.1469 -4.3876 0
M  V30 2 Pb -2.1414 -0.4538 -5.1014 0
M  V30 3 Pb -1.9028 -1.8643 -3.7011 0
M  V30 4 Pb -2.9597 -1.0931 -4.0911 0
M  V30 5 Pb -1.0364 -1.2212 -4.6258 0
M  V30 6 Pd 4.5283 -5.3553 2.7810 0
M  V30 7 Pb 4.4710 -4.5238 3.3425 0
M  V30 8 Pb 4.6149 -6.2277 2.3079 0
M  V30 9 Pb 5.3689 -5.0911 2.3110 0
M  V30 10 Pb 3.6289 -5.6479 3.1094 0
M  V30 11 Pd 0.0892 6.6444 0.8871 0
M  V30 12 Pb -0.7539 6.9568 0.4583 0
M  V30 13 Pb 0.9367 6.3034 1.2850 0
M  V30 14 Pb -0.2763 6.8172 1.8030 0
M  V30 15 Pb 0.4128 6.4117 -0.0329 0
M  V30 16 Pd -3.1132 3.7404 4.1127 0
M  V30 17 Pb -2.6407 4.6217 4.1888 0
M  V30 18 Pb -3.5940 2.8668 4.0226 0
M  V30 19 Pb -2.3378 3.2769 4.5500 0
M  V30 20 Pb -3.9072 4.1942 3.7036 0
M  V30 21 Pd 3.8696 0.5378 3.7382 0
M  V30 22 Pb 3.9526 -0.4063 4.0681 0
M  V30 23 Pb 3.8364 1.4943 3.4576 0
M  V30 24 Pb 3.1248 0.7232 4.3808 0
M  V30 25 Pb 4.5447 0.3761 3.0233 0
M  V30 26 Pd -6.6490 2.1181 0.5663 0
M  V30 27 Pb -6.2765 1.6450 1.3658 0
M  V30 28 Pb -6.9731 2.5724 -0.2615 0
M  V30 29 Pb -6.5996 1.2986 -0.0022 0
M  V30 30 Pb -6.6278 2.9726 1.0855 0
M  V30 31 Pd -3.1403 4.2989 -5.0680 0
M  V30 32 Pb -2.9714 3.5036 -5.6529 0
M  V30 33 Pb -4.1239 4.1399 -5.0528 0
M  V30 34 Pb -2.1625 4.4648 -4.9388 0
M  V30 35 Pb -3.3032 5.0574 -4.4412 0
M  V30 36 Pd 4.9732 -3.7373 -2.2477 0
M  V30 37 Pb 5.3224 -2.8869 -1.8644 0
M  V30 38 Pb 4.5999 -4.5945 -2.6109 0
M  V30 39 Pb 5.5730 -4.1762 -1.5717 0
M  V30 40 Pb 4.3945 -3.2475 -2.9039 0
M  V30 41 Pd 1.4049 -7.0883 -0.4390 0
M  V30 42 Pb 2.1775 -7.6594 -0.1876 0
M  V30 43 Pb 0.6448 -6.4876 -0.6772 0
M  V30 44 Pb 1.7688 -7.0646 -1.3690 0
M  V30 45 Pb 1.1473 -7.0387 0.5285 0
M  V30 46 Ag 4.9885 0.2800 2.4306 0
M  V30 47 Fe 5.3728 -0.9532 0.4428 0
M  V30 48 Ag 5.5968 -2.2989 -1.4959 0
M  V30 49 Ag -1.7692 2.9233 4.8959 0
M  V30 50 Fe 0.3798 1.9054 4.8774 0
M  V30 51 Ag 2.5329 0.8982 4.8091 0
M  V30 52 Ag 0.5856 6.2123 -0.7378 0
M  V30 53 Fe -0.3034 5.4204 -2.7956 0
M  V30 54 Ag -1.4667 4.6344 -4.7138 0
M  V30 55 Ag -1.3533 7.1334 0.0512 0
M  V30 56 Fe -2.4927 6.4808 -1.9219 0
M  V30 57 Ag -3.3932 5.5902 -3.9254 0
M  V30 58 Ag -3.6447 -1.1047 -3.7857 0
M  V30 59 Fe -5.1413 -0.2214 -2.1673 0
M  V30 60 Ag -6.5387 0.7558 -0.5147 0
M  V30 61 Ag -0.3020 -1.2873 -4.7729 0
M  V30 62 Fe 1.8343 -2.0823 -4.0969 0
M  V30 63 Ag 3.9615 -2.8857 -3.4021 0
M  V30 64 Ag -1.8889 -2.4115 -3.1906 0
M  V30 65 Fe -0.8652 -4.2131 -2.0342 0
M  V30 66 Ag 0.0765 -6.0247 -0.8252 0
M  V30 67 Ag -7.1461 2.8318 -0.9418 0
M  V30 68 Fe -6.1760 3.4794 -3.0069 0
M  V30 69 Ag -4.8465 4.0630 -4.8819 0
M  V30 70 Ag 1.5669 6.0223 1.5693 0
M  V30 71 Fe 2.7118 4.1290 2.4229 0
M  V30 72 Ag 3.8307 2.2182 3.2715 0
M  V30 73 Ba 4.4103 -3.9700 3.8519 0
M  V30 74 Ga 4.2211 -2.5118 4.0183 0
M  V30 75 Ba 4.0390 -1.0877 4.3774 0
M  V30 76 Ba -2.2389 0.0369 -5.6654 0
M  V30 77 Ga -2.5410 1.4730 -5.8468 0
M  V30 78 Ba -2.8410 2.9015 -6.0835 0
M  V30 79 Ba -3.9726 2.2231 3.9399 0
M  V30 80 Ga -4.9740 1.7496 2.9635 0
M  V30 81 Ba -5.9727 1.3133 1.9671 0
M  V30 82 Ba 2.9344 -5.8947 3.2570 0
M  V30 83 Ga 1.9322 -6.4410 2.3170 0
M  V30 84 Ba 1.0308 -6.9655 1.2686 0
M  V30 85 Ba 4.6682 -6.8876 1.9638 0
M  V30 86 Ga 3.7788 -7.5311 0.9934 0
M  V30 87 Ba 2.7852 -8.0225 0.0360 0
M  V30 88 Ba -4.5208 4.5153 3.4103 0
M  V30 89 Ga -5.5504 4.0810 2.4450 0
M  V30 90 Ba -6.5595 3.6101 1.4752 0
M  V30 91 Ba -0.5569 6.9156 2.4928 0
M  V30 92 Ga -1.4258 6.1038 3.3704 0
M  V30 93 Ba -2.2948 5.2880 4.2440 0
M  V30 94 Ba 5.9576 -4.9925 1.8565 0
M  V30 95 Ga 6.0262 -4.6853 0.4103 0
M  V30 96 Ba 6.0667 -4.3821 -1.0379 0
M  V30 97 Ba 4.2701 -5.1998 -2.9146 0
M  V30 98 Ga 3.2003 -6.1276 -2.4935 0
M  V30 99 Ba 2.1294 -7.0310 -2.0252 0
M  V30 END ATOM
M  V30 BEGIN BOND
M  V30 1 1 1 2
M  V30 2 1 1 3
M  V30 3 1 1 4
M  V30 4 1 1 5
M  V30 5 1 6 7
M  V30 6 1 6 8
M  V30 7 1 6 9
M  V30 8 1 6 10
M  V30 9 1 11 12
M  V30 10 1 11 13
M  V30 11 1 11 14
M  V30 12 1 11 15
M  V30 13 1 16 17
M  V30 14 1 16 18
M  V30 15 1 16 19
M  V30 16 1 16 20
M  V30 17 1 21 22
M  V30 18 1 21 23
M  V30 19 1 21 24
M  V30 20 1 21 25
M  V30 21 1 26 27
M  V30 22 1 26 28
M  V30 23 1 26 29
M  V30 24 1 26 30
M  V30 25 1 31 32
M  V30 26 1 31 33
M  V30 27 1 31 34
M  V30 28 1 31 35
M  V30 29 1 36 37
M  V30 30 1 36 38
M  V30 31 1 36 39
M  V30 32 1 36 40
M  V30 33 1 41 42
M  V30 34 1 41 43
M  V30 35 1 41 44
M  V30 36 1 41 45
M  V30 37 1 46 47
M  V30 38 1 47 48
M  V30 39 1 49 50
M  V30 40 1 50 51
M  V30 41 1 52 53
M  V30 42 1 53 54
M  V30 43 1 55 56
M  V30 44 1 56 57
M  V30 45 1 58 59
M  V30 46 1 59 60
M  V30 47 1 61 62
M  V30 48 1 62 63
M  V30 49 1 64 65
M  V30 50 1 65 66
M  V30 51 1 67 68
M  V30 52 1 68 69
M  V30 53 1 70 71
M  V30 54 1 71 72
M  V30 55 1 73 74
M  V30 56 1 74 75
M  V30 57 1 76 77
M  V30 58 1 77 78
M  V30 59 1 79 80
M  V30 60 1 80 81
M  V30 61 1 82 83
M  V30 62 1 83 84
M  V30 63 1 85 86
M  V30 64 1 86 87
M  V30 65 1 88 89
M  V30 66 1 89 90
M  V30 67 1 91 92
M  V30 68 1 92 93
M  V30 69 1 94 95
M  V30 70 1 95 96
M  V30 71 1 97 98
M  V30 72 1 98 99
M  V30 73 1 2 76
M  V30 74 1 3 64
M  V30 75 1 4 58
M  V30 76 1 5 61
M  V30 77 1 7 73
M  V30 78 1 8 85
M  V30 79 1 9 94
M  V30 80 1 10 82
M  V30 81 1 12 55
M  V30 82 1 13 70
M  V30 83 1 14 91
M  V30 84 1 15 52
M  V30 85 1 17 93
M  V30 86 1 18 79
M  V30 87 1 19 49
M  V30 88 1 20 88
M  V30 89 1 22 75
M  V30 90 1 23 72
M  V30 91 1 24 51
M  V30 92 1 25 46
M  V30 93 1 27 81
M  V30 94 1 28 67
M  V30 95 1 29 60
M  V30 96 1 30 90
M  V30 97 1 32 78
M  V30 98 1 33 69
M  V30 99 1 34 54
M  V30 100 1 35 57
M  V30 101 1 37 48
M  V30 102 1 38 97
M  V30 103 1 39 96
M  V30 104 1 40 63
M  V30 105 1 42 87
M  V30 106 1 43 66
M  V30 107 1 44 99
M  V30 108 1 45 84
M  V30 END BOND
M  V30 END CTAB
M  END

$$$$
