
     RDKit          3D

  0  0  0  0  0  0  0  0  0  0999 V3000
M  V30 BEGIN CTAB
M  V30 COUNTS 99 108 0 0 0
M  V30 BEGIN ATOM
M  V30 1 Pd 0.2512 4.6834 -2.4402 0
M  V30 2 Pb 1.1333 4.3264 -2.7410 0
M  V30 3 Pb 0.6882 5.0081 -1.6022 0
M  V30 4 Pb -0.1786 4.3336 -3.2760 0
M  V30 5 Pb -0.6126 5.0959 -2.1455 0
M  V30 6 Pd 0.3053 0.2761 6.2045 0
M  V30 7 Pb 0.6850 -0.0447 5.3341 0
M  V30 8 Pb 1.0791 0.9138 6.3273 0
M  V30 9 Pb -0.5998 -0.0553 5.9614 0
M  V30 10 Pb -0.0728 0.5832 7.0732 0
M  V30 11 Pd 2.3020 -5.8226 -0.5468 0
M  V30 12 Pb 3.0499 -5.3739 -0.0738 0
M  V30 13 Pb 1.8976 -6.0414 0.3423 0
M  V30 14 Pb 1.5582 -6.3090 -1.0076 0
M  V30 15 Pb 2.6945 -5.5256 -1.4422 0
M  V30 16 Pd -2.4154 -4.5151 -2.8210 0
M  V30 17 Pb -1.9694 -5.3947 -2.6629 0
M  V30 18 Pb -1.8739 -4.4110 -3.6486 0
M  V30 19 Pb -2.9338 -4.6307 -1.9758 0
M  V30 20 Pb -2.8186 -3.6085 -2.9746 0
M  V30 21 Pd -1.1279 -3.0377 1.9503 0
M  V30 22 Pb -0.3472 -2.4801 2.2401 0
M  V30 23 Pb -0.6879 -3.8635 2.3038 0
M  V30 24 Pb -1.9148 -3.5776 1.6565 0
M  V30 25 Pb -1.5475 -2.2458 1.5085 0
M  V30 26 Pd -0.6327 -0.1940 -5.3788 0
M  V30 27 Pb -0.5274 -1.1791 -5.4831 0
M  V30 28 Pb 0.2304 -0.1161 -5.8754 0
M  V30 29 Pb -0.7644 0.8023 -5.3471 0
M  V30 30 Pb -1.4845 -0.3448 -4.8713 0
M  V30 31 Pd 4.4254 -1.3743 -3.9536 0
M  V30 32 Pb 4.5616 -0.3881 -3.9497 0
M  V30 33 Pb 3.9235 -1.2444 -4.8106 0
M  V30 34 Pb 4.2054 -2.3689 -3.8922 0
M  V30 35 Pb 4.9497 -1.4468 -3.1145 0
M  V30 36 Pd -3.3369 4.2607 1.7375 0
M  V30 37 Pb -3.3460 3.4626 1.1419 0
M  V30 38 Pb -3.2611 5.0507 2.3527 0
M  V30 39 Pb -3.4823 3.6017 2.4776 0
M  V30 40 Pb -3.2102 4.8628 0.9488 0
M  V30 41 Pd 0.2815 5.6377 5.3081 0
M  V30 42 Pb 0.9712 4.9569 5.6203 0
M  V30 43 Pb 0.7215 5.6996 4.4129 0
M  V30 44 Pb -0.4854 6.1862 4.9713 0
M  V30 45 Pb -0.1433 5.6058 6.2083 0
M  V30 46 Ag 1.8040 4.0765 -2.9585 0
M  V30 47 Fe 3.2503 2.2656 -3.4604 0
M  V30 48 Ag 4.5767 0.3570 -3.9291 0
M  V30 49 Ag -1.8675 -1.6843 1.1290 0
M  V30 50 Fe -2.6049 0.5600 0.9089 0
M  V30 51 Ag -3.3151 2.8191 0.7658 0
M  V30 52 Ag -0.3509 0.9613 7.6461 0
M  V30 53 Fe -0.6449 3.2877 7.8218 0
M  V30 54 Ag -0.4259 5.4264 6.8691 0
M  V30 55 Ag 3.6178 -4.9712 0.1725 0
M  V30 56 Fe 4.7882 -3.1717 -0.7890 0
M  V30 57 Ag 5.2619 -1.5849 -2.4595 0
M  V30 58 Ag -1.3093 -0.0596 5.7335 0
M  V30 59 Fe -2.6011 1.3773 4.3540 0
M  V30 60 Ag -3.5784 3.0124 2.9358 0
M  V30 61 Ag 1.0277 5.2344 -0.9738 0
M  V30 62 Fe 1.0319 5.4983 1.3857 0
M  V30 63 Ag 1.0527 5.7695 3.7443 0
M  V30 64 Ba 0.9868 -0.2851 4.6882 0
M  V30 65 Ga 0.5926 -1.1754 3.5762 0
M  V30 66 Ba 0.2405 -2.0569 2.4433 0
M  V30 67 Ba -3.2874 -4.7303 -1.3238 0
M  V30 68 Ga -2.9317 -4.3588 0.0559 0
M  V30 69 Ba -2.5114 -3.9550 1.4081 0
M  V30 70 Ba -1.4513 -4.3218 -4.2550 0
M  V30 71 Ga -0.9415 -3.1271 -4.9396 0
M  V30 72 Ba -0.4479 -1.9120 -5.5998 0
M  V30 73 Ba 2.9856 -5.3299 -2.1291 0
M  V30 74 Ga 3.5029 -4.1706 -2.9281 0
M  V30 75 Ba 4.0452 -3.1214 -3.8530 0
M  V30 76 Ba 1.5859 1.4818 6.3810 0
M  V30 77 Ga 1.5187 2.9535 6.1151 0
M  V30 78 Ba 1.4756 4.4271 5.8559 0
M  V30 79 Ba -3.0986 -2.9184 -3.0937 0
M  V30 80 Ga -2.6155 -1.7043 -3.7894 0
M  V30 81 Ba -2.1153 -0.5002 -4.4901 0
M  V30 82 Ba 1.0021 -6.6945 -1.3338 0
M  V30 83 Ga -0.3022 -6.3703 -1.9415 0
M  V30 84 Ba -1.6052 -6.0389 -2.5482 0
M  V30 85 Ba -0.4969 4.0806 -3.9096 0
M  V30 86 Ga -0.6739 2.7861 -4.6053 0
M  V30 87 Ba -0.9026 1.5442 -5.3774 0
M  V30 88 Ba -1.2417 5.4430 -1.9251 0
M  V30 89 Ga -2.1789 5.3561 -0.7877 0
M  V30 90 Ba -3.1322 5.2915 0.3378 0
M  V30 91 Ba -3.1696 5.6615 2.7856 0
M  V30 92 Ga -2.1444 6.1129 3.7522 0
M  V30 93 Ba -1.1014 6.5317 4.7142 0
M  V30 94 Ba 0.8808 -0.1627 -6.2453 0
M  V30 95 Ga 2.2342 -0.6043 -5.8533 0
M  V30 96 Ba 3.5841 -1.0497 -5.4532 0
M  V30 97 Ba 1.5895 -6.1523 1.0181 0
M  V30 98 Ga 0.6216 -5.3565 1.7985 0
M  V30 99 Ba -0.3491 -4.5010 2.5090 0
M  V30 END ATOM
M  V30 BEGIN BOND
M  V30 1 1 1 2
M  V30 2 1 1 3
M  V30 3 1 1 4
M  V30 4 1 1 5
M  V30 5 1 6 7
M  V30 6 1 6 8
M  V30 7 1 6 9
M  V30 8 1 6 10
M  V30 9 1 11 12
M  V30 10 1 11 13
M  V30 11 1 11 14
M  V30 12 1 11 15
M  V30 13 1 16 17
M  V30 14 1 16 18
M  V30 15 1 16 19
M  V30 16 1 16 20
M  V30 17 1 21 22
M  V30 18 1 21 23
M  V30 19 1 21 24
M  V30 20 1 21 25
M  V30 21 1 26 27
M  V30 22 1 26 28
M  V30 23 1 26 29
M  V30 24 1 26 30
M  V30 25 1 31 32
M  V30 26 1 31 33
M  V30 27 1 31 34
M  V30 28 1 31 35
M  V30 29 1 36 37
M  V30 30 1 36 38
M  V30 31 1 36 39
M  V30 32 1 36 40
M  V30 33 1 41 42
M  V30 34 1 41 43
M  V30 35 1 41 44
M  V30 36 1 41 45
M  V30 37 1 46 47
M  V30 38 1 47 48
M  V30 39 1 49 50
M  V30 40 1 50 51
M  V30 41 1 52 53
M  V30 42 1 53 54
M  V30 43 1 55 56
M  V30 44 1 56 57
M  V30 45 1 58 59
M  V30 46 1 59 60
M  V30 47 1 61 62
M  V30 48 1 62 63
M  V30 49 1 64 65
M  V30 50 1 65 66
M  V30 51 1 67 68
M  V30 52 1 68 69
M  V30 53 1 70 71
M  V30 54 1 71 72
M  V30 55 1 73 74
M  V30 56 1 74 75
M  V30 57 1 76 77
M  V30 58 1 77 78
M  V30 59 1 79 80
M  V30 60 1 80 81
M  V30 61 1 82 83
M  V30 62 1 83 84
M  V30 63 1 85 86
M  V30 64 1 86 87
M  V30 65 1 88 89
M  V30 66 1 89 90
M  V30 67 1 91 92
M  V30 68 1 92 93
M  V30 69 1 94 95
M  V30 70 1 95 96
M  V30 71 1 97 98
M  V30 72 1 98 99
M  V30 73 1 2 46
M  V30 74 1 3 61
M  V30 75 1 4 85
M  V30 76 1 5 88
M  V30 77 1 7 64
M  V30 78 1 8 76
M  V30 79 1 9 58
M  V30 80 1 10 52
M  V30 81 1 12 55
M  V30 82 1 13 97
M  V30 83 1 14 82
M  V30 84 1 15 73
M  V30 85 1 17 84
M  V30 86 1 18 70
M  V30 87 1 19 67
M  V30 88 1 20 79
M  V30 89 1 22 66
M  V30 90 1 23 99
M  V30 91 1 24 69
M  V30 92 1 25 49
M  V30 93 1 27 72
M  V30 94 1 28 94
M  V30 95 1 29 87
M  V30 96 1 30 81
M  V30 97 1 32 48
M  V30 98 1 33 96
M  V30 99 1 34 75
M  V30 100 1 35 57
M  V30 101 1 37 51
M  V30 102 1 38 91
M  V30 103 1 39 60
M  V30 104 1 40 90
M  V30 105 1 42 78
M  V30 106 1 43 63
M  V30 107 1 44 93
M  V30 108 1 45 54
M  V30 END BOND
M  V30 END CTAB
M  END

$$$$
