
     RDKit          3D

  0  0  0  0  0  0  0  0  0  0999 V3000
M  V30 BEGIN CTAB
M  V30 COUNTS 99 108 0 0 0
M  V30 BEGIN ATOM
M  V30 1 Pd 0.8817 -0.6782 3.5862 0
M  V30 2 Pb 1.8463 -0.4786 3.3786 0
M  V30 3 Pb 0.9374 -0.2105 4.4714 0
M  V30 4 Pb 0.7950 -1.1774 2.7285 0
M  V30 5 Pb -0.0991 -0.8039 3.7283 0
M  V30 6 Pd -2.6148 -4.4597 0.7867 0
M  V30 7 Pb -3.1592 -3.6865 0.4721 0
M  V30 8 Pb -3.2814 -5.0735 0.3725 0
M  V30 9 Pb -1.8230 -3.8637 0.9381 0
M  V30 10 Pb -2.0470 -5.2564 0.9634 0
M  V30 11 Pd -2.4095 -3.9734 -3.7729 0
M  V30 12 Pb -1.9943 -3.1491 -4.1548 0
M  V30 13 Pb -2.8792 -4.7598 -3.3607 0
M  V30 14 Pb -1.7465 -4.5532 -4.2582 0
M  V30 15 Pb -3.0231 -3.3800 -3.2508 0
M  V30 16 Pd 4.3777 -0.8588 -0.8241 0
M  V30 17 Pb 4.3812 -1.2206 -1.7605 0
M  V30 18 Pb 4.4289 0.0605 -1.2227 0
M  V30 19 Pb 4.4234 -1.7943 -0.4786 0
M  V30 20 Pb 4.3570 -0.5186 0.1238 0
M  V30 21 Pd -3.2368 3.4704 -3.0820 0
M  V30 22 Pb -3.9967 2.8485 -2.8883 0
M  V30 23 Pb -2.4504 4.0771 -3.1833 0
M  V30 24 Pb -2.7402 2.7441 -3.5593 0
M  V30 25 Pb -3.7315 4.1854 -2.5893 0
M  V30 26 Pd 2.7918 -5.4137 -2.9471 0
M  V30 27 Pb 3.3761 -5.2154 -2.1620 0
M  V30 28 Pb 3.1859 -4.6284 -3.4248 0
M  V30 29 Pb 2.1310 -5.5812 -3.6854 0
M  V30 30 Pb 2.3912 -6.1425 -2.4015 0
M  V30 31 Pd 1.4774 4.2911 5.1235 0
M  V30 32 Pb 1.7045 4.9804 4.4141 0
M  V30 33 Pb 0.5011 4.4939 5.0364 0
M  V30 34 Pb 2.4448 4.0841 5.2186 0
M  V30 35 Pb 1.2779 3.5237 5.7279 0
M  V30 36 Pd -5.1129 2.9354 1.4682 0
M  V30 37 Pb -4.7091 3.4547 2.2211 0
M  V30 38 Pb -5.2273 3.7743 0.9393 0
M  V30 39 Pb -4.9312 2.0942 1.9761 0
M  V30 40 Pb -5.4491 2.4213 0.6776 0
M  V30 41 Pd 3.7119 4.7394 -0.2094 0
M  V30 42 Pb 4.0475 4.1262 -0.9208 0
M  V30 43 Pb 4.4589 4.4552 0.3812 0
M  V30 44 Pb 3.3268 5.2863 0.5552 0
M  V30 45 Pb 2.9804 5.0382 -0.8225 0
M  V30 46 Ag -1.7424 -2.4878 -4.4003 0
M  V30 47 Fe -2.0003 -0.1352 -4.2025 0
M  V30 48 Ag -2.3652 2.1927 -3.9046 0
M  V30 49 Ag -0.8455 -0.8411 3.7777 0
M  V30 50 Fe -2.8594 0.2347 3.1283 0
M  V30 51 Ag -4.7253 1.4855 2.3611 0
M  V30 52 Ag -1.5887 -5.8405 0.9404 0
M  V30 53 Fe 0.2776 -6.4891 -0.3587 0
M  V30 54 Ag 2.0644 -6.5890 -1.9046 0
M  V30 55 Ag -0.2334 4.6381 4.9762 0
M  V30 56 Fe -2.3146 4.2583 3.8957 0
M  V30 57 Ag -4.3616 3.8304 2.7691 0
M  V30 58 Ag -1.8432 4.5146 -3.1993 0
M  V30 59 Fe 0.3076 4.9203 -2.2792 0
M  V30 60 Ag 2.4465 5.2528 -1.3038 0
M  V30 61 Ag 3.1672 3.9432 5.1445 0
M  V30 62 Fe 4.5306 3.9613 3.2267 0
M  V30 63 Ag 4.9199 4.2576 0.9251 0
M  V30 64 Ba 1.8806 5.4922 3.8735 0
M  V30 65 Ga 2.4652 5.5409 2.4990 0
M  V30 66 Ba 3.0362 5.7039 1.1276 0
M  V30 67 Ba 4.3777 -1.4882 -2.4651 0
M  V30 68 Ga 3.9401 -2.7434 -3.1115 0
M  V30 69 Ba 3.4919 -4.0119 -3.7236 0
M  V30 70 Ba 0.9368 0.1203 5.1477 0
M  V30 71 Ga 1.0468 1.5007 5.6570 0
M  V30 72 Ba 1.1644 2.8969 6.1189 0
M  V30 73 Ba 4.5237 0.7017 -1.6078 0
M  V30 74 Ga 4.3866 2.1663 -1.4856 0
M  V30 75 Ba 4.2755 3.6378 -1.4389 0
M  V30 76 Ba 4.5066 -2.5065 -0.2640 0
M  V30 77 Ga 4.1426 -3.7922 -0.8839 0
M  V30 78 Ba 3.7592 -5.0546 -1.5390 0
M  V30 79 Ba -3.6667 -5.5201 -0.0870 0
M  V30 80 Ga -3.5402 -5.4793 -1.5585 0
M  V30 81 Ba -3.2842 -5.2857 -3.0012 0
M  V30 82 Ba -3.5481 -3.1569 0.1182 0
M  V30 83 Ga -3.5659 -2.9669 -1.3410 0
M  V30 84 Ba -3.4445 -2.9451 -2.8079 0
M  V30 85 Ba 2.5585 -0.2889 3.2066 0
M  V30 86 Ga 3.4365 -0.3084 2.0097 0
M  V30 87 Ba 4.3620 -0.3008 0.8491 0
M  V30 88 Ba -4.1174 4.6889 -2.1905 0
M  V30 89 Ga -4.7162 4.5942 -0.8482 0
M  V30 90 Ba -5.2687 4.3784 0.4999 0
M  V30 91 Ba 0.7153 -1.5631 2.0945 0
M  V30 92 Ga -0.2786 -2.5107 1.5536 0
M  V30 93 Ba -1.1846 -3.4661 0.8880 0
M  V30 94 Ba -4.5578 2.3991 -2.6714 0
M  V30 95 Ga -5.1484 2.1949 -1.3333 0
M  V30 96 Ba -5.6600 2.0722 0.0466 0
M  V30 97 Ba -1.2313 -4.9671 -4.6248 0
M  V30 98 Ga 0.1891 -5.3350 -4.4130 0
M  V30 99 Ba 1.6093 -5.7118 -4.2155 0
M  V30 END ATOM
M  V30 BEGIN BOND
M  V30 1 1 1 2
M  V30 2 1 1 3
M  V30 3 1 1 4
M  V30 4 1 1 5
M  V30 5 1 6 7
M  V30 6 1 6 8
M  V30 7 1 6 9
M  V30 8 1 6 10
M  V30 9 1 11 12
M  V30 10 1 11 13
M  V30 11 1 11 14
M  V30 12 1 11 15
M  V30 13 1 16 17
M  V30 14 1 16 18
M  V30 15 1 16 19
M  V30 16 1 16 20
M  V30 17 1 21 22
M  V30 18 1 21 23
M  V30 19 1 21 24
M  V30 20 1 21 25
M  V30 21 1 26 27
M  V30 22 1 26 28
M  V30 23 1 26 29
M  V30 24 1 26 30
M  V30 25 1 31 32
M  V30 26 1 31 33
M  V30 27 1 31 34
M  V30 28 1 31 35
M  V30 29 1 36 37
M  V30 30 1 36 38
M  V30 31 1 36 39
M  V30 32 1 36 40
M  V30 33 1 41 42
M  V30 34 1 41 43
M  V30 35 1 41 44
M  V30 36 1 41 45
M  V30 37 1 46 47
M  V30 38 1 47 48
M  V30 39 1 49 50
M  V30 40 1 50 51
M  V30 41 1 52 53
M  V30 42 1 53 54
M  V30 43 1 55 56
M  V30 44 1 56 57
M  V30 45 1 58 59
M  V30 46 1 59 60
M  V30 47 1 61 62
M  V30 48 1 62 63
M  V30 49 1 64 65
M  V30 50 1 65 66
M  V30 51 1 67 68
M  V30 52 1 68 69
M  V30 53 1 70 71
M  V30 54 1 71 72
M  V30 55 1 73 74
M  V30 56 1 74 75
M  V30 57 1 76 77
M  V30 58 1 77 78
M  V30 59 1 79 80
M  V30 60 1 80 81
M  V30 61 1 82 83
M  V30 62 1 83 84
M  V30 63 1 85 86
M  V30 64 1 86 87
M  V30 65 1 88 89
M  V30 66 1 89 90
M  V30 67 1 91 92
M  V30 68 1 92 93
M  V30 69 1 94 95
M  V30 70 1 95 96
M  V30 71 1 97 98
M  V30 72 1 98 99
M  V30 73 1 2 85
M  V30 74 1 3 70
M  V30 75 1 4 91
M  V30 76 1 5 49
M  V30 77 1 7 82
M  V30 78 1 8 79
M  V30 79 1 9 93
M  V30 80 1 10 52
M  V30 81 1 12 46
M  V30 82 1 13 81
M  V30 83 1 14 97
M  V30 84 1 15 84
M  V30 85 1 17 67
M  V30 86 1 18 73
M  V30 87 1 19 76
M  V30 88 1 20 87
M  V30 89 1 22 94
M  V30 90 1 23 58
M  V30 91 1 24 48
M  V30 92 1 25 88
M  V30 93 1 27 78
M  V30 94 1 28 69
M  V30 95 1 29 99
M  V30 96 1 30 54
M  V30 97 1 32 64
M  V30 98 1 33 55
M  V30 99 1 34 61
M  V30 100 1 35 72
M  V30 101 1 37 57
M  V30 102 1 38 90
M  V30 103 1 39 51
M  V30 104 1 40 96
M  V30 105 1 42 75
M  V30 106 1 43 63
M  V30 107 1 44 66
M  V30 108 1 45 60
M  V30 END BOND
M  V30 END CTAB
M  END

$$$$
