
     RDKit          3D

  0  0  0  0  0  0  0  0  0  0999 V3000
M  V30 BEGIN CTAB
M  V30 COUNTS 99 108 0 0 0
M  V30 BEGIN ATOM
M  V30 1 Pd 4.5642 0.2467 3.1714 0
M  V30 2 Pb 4.4436 1.0939 2.6579 0
M  V30 3 Pb 4.7510 -0.5731 3.7226 0
M  V30 4 Pb 3.9914 0.6263 3.8980 0
M  V30 5 Pb 5.0531 -0.0944 2.3705 0
M  V30 6 Pd 0.6996 -6.4964 1.0554 0
M  V30 7 Pb 0.0781 -5.7366 0.9004 0
M  V30 8 Pb 0.6594 -6.3430 2.0486 0
M  V30 9 Pb 0.7637 -6.6173 0.0595 0
M  V30 10 Pb 1.3461 -7.2349 1.2233 0
M  V30 11 Pd -2.4993 4.1945 -4.6999 0
M  V30 12 Pb -2.5337 4.9795 -4.0788 0
M  V30 13 Pb -2.4736 3.3916 -5.3007 0
M  V30 14 Pb -3.4975 4.1979 -4.7283 0
M  V30 15 Pb -1.5035 4.1891 -4.6169 0
M  V30 16 Pd -7.3313 2.2870 0.0591 0
M  V30 17 Pb -7.5271 2.7222 -0.8160 0
M  V30 18 Pb -6.9881 1.8793 0.9071 0
M  V30 19 Pb -7.2782 1.4222 -0.4349 0
M  V30 20 Pb -7.2320 3.1741 0.5023 0
M  V30 21 Pd -1.9908 -1.1289 -3.9192 0
M  V30 22 Pb -1.8779 -1.6198 -3.0607 0
M  V30 23 Pb -2.1240 -0.5729 -4.7419 0
M  V30 24 Pb -2.9646 -1.0846 -3.6927 0
M  V30 25 Pb -1.0195 -1.2310 -4.1534 0
M  V30 26 Pd -1.8066 4.3855 3.9825 0
M  V30 27 Pb -2.4139 3.6016 4.1252 0
M  V30 28 Pb -1.2299 5.1668 3.7414 0
M  V30 29 Pb -1.0287 3.9024 4.3921 0
M  V30 30 Pb -2.6027 4.8582 3.6083 0
M  V30 31 Pd 0.5793 5.8107 -0.6731 0
M  V30 32 Pb 1.4327 5.4257 -0.3301 0
M  V30 33 Pb 0.4278 6.2221 0.2298 0
M  V30 34 Pb 0.7575 5.4026 -1.5707 0
M  V30 35 Pb -0.2730 6.1911 -1.0317 0
M  V30 36 Pd 3.1834 -3.7724 -2.7962 0
M  V30 37 Pb 2.6038 -3.1753 -3.3613 0
M  V30 38 Pb 3.8301 -4.3126 -2.2613 0
M  V30 39 Pb 2.5525 -4.5482 -2.8708 0
M  V30 40 Pb 3.8205 -3.0298 -2.6046 0
M  V30 41 Pd 4.4982 -5.6175 3.9044 0
M  V30 42 Pb 3.6293 -5.6436 4.3939 0
M  V30 43 Pb 4.7275 -4.7176 4.2856 0
M  V30 44 Pb 5.2340 -5.5811 3.2382 0
M  V30 45 Pb 4.2829 -6.5159 3.5257 0
M  V30 46 Ag -0.3662 -5.1573 0.7583 0
M  V30 47 Fe -1.1054 -3.5584 -0.8260 0
M  V30 48 Ag -1.8603 -1.9480 -2.3911 0
M  V30 49 Ag 4.4026 1.7343 2.2734 0
M  V30 50 Fe 3.2134 3.4227 1.1061 0
M  V30 51 Ag 2.0707 5.1370 -0.0700 0
M  V30 52 Ag -7.1506 0.8317 -0.8756 0
M  V30 53 Fe -5.4668 -0.1969 -2.1964 0
M  V30 54 Ag -3.6828 -1.1041 -3.4742 0
M  V30 55 Ag -6.6400 1.6582 1.5358 0
M  V30 56 Fe -4.8118 2.2281 2.9451 0
M  V30 57 Ag -2.9290 3.0537 4.1395 0
M  V30 58 Ag -7.0231 3.8042 0.8433 0
M  V30 59 Fe -5.2025 4.6433 2.1102 0
M  V30 60 Ag -3.2389 5.1480 3.3408 0
M  V30 61 Ag -4.2435 4.1997 -4.6718 0
M  V30 62 Fe -6.0323 3.6705 -3.2077 0
M  V30 63 Ag -7.5434 3.0227 -1.4990 0
M  V30 64 Ag 3.5152 0.9468 4.3816 0
M  V30 65 Fe 1.5326 2.2420 4.5895 0
M  V30 66 Ag -0.4553 3.5393 4.7186 0
M  V30 67 Ag 5.3316 -0.2644 1.6960 0
M  V30 68 Fe 4.9361 -1.3683 -0.3676 0
M  V30 69 Ag 4.3326 -2.5591 -2.3299 0
M  V30 70 Ag 4.3790 -4.6045 -1.8437 0
M  V30 71 Fe 5.1717 -5.1452 0.3242 0
M  V30 72 Ag 5.6249 -5.5982 2.6061 0
M  V30 73 Ba -0.3040 -1.3011 -4.3813 0
M  V30 74 Ga 0.9370 -2.0323 -4.0367 0
M  V30 75 Ba 2.2457 -2.6897 -3.8163 0
M  V30 76 Ba -0.7614 4.1988 -4.5126 0
M  V30 77 Ga 0.0803 4.6462 -3.3856 0
M  V30 78 Ba 0.8992 5.1006 -2.2447 0
M  V30 79 Ba 1.8597 -7.7395 1.4157 0
M  V30 80 Ga 3.0116 -7.5353 2.3051 0
M  V30 81 Ba 4.1119 -7.1721 3.2092 0
M  V30 82 Ba 0.6616 -6.2263 2.7952 0
M  V30 83 Ga 1.7446 -5.9542 3.7653 0
M  V30 84 Ba 2.9184 -5.6889 4.6247 0
M  V30 85 Ba -2.5671 5.5586 -3.6010 0
M  V30 86 Ga -1.7443 6.0201 -2.4657 0
M  V30 87 Ba -0.9040 6.4601 -1.3348 0
M  V30 88 Ba 0.7953 -6.6790 -0.6927 0
M  V30 89 Ga 1.4428 -5.9194 -1.7871 0
M  V30 90 Ba 2.0980 -5.1489 -2.8692 0
M  V30 91 Ba 4.9228 -1.1351 4.1968 0
M  V30 92 Ga 4.8860 -2.6088 4.3318 0
M  V30 93 Ba 4.9131 -4.0628 4.6090 0
M  V30 94 Ba -0.8295 5.7589 3.5111 0
M  V30 95 Ga -0.2339 6.1413 2.2131 0
M  V30 96 Ba 0.3616 6.5270 0.9160 0
M  V30 97 Ba -2.4645 2.7860 -5.7482 0
M  V30 98 Ga -2.3393 1.3265 -5.5475 0
M  V30 99 Ba -2.2137 -0.1327 -5.3448 0
M  V30 END ATOM
M  V30 BEGIN BOND
M  V30 1 1 1 2
M  V30 2 1 1 3
M  V30 3 1 1 4
M  V30 4 1 1 5
M  V30 5 1 6 7
M  V30 6 1 6 8
M  V30 7 1 6 9
M  V30 8 1 6 10
M  V30 9 1 11 12
M  V30 10 1 11 13
M  V30 11 1 11 14
M  V30 12 1 11 15
M  V30 13 1 16 17
M  V30 14 1 16 18
M  V30 15 1 16 19
M  V30 16 1 16 20
M  V30 17 1 21 22
M  V30 18 1 21 23
M  V30 19 1 21 24
M  V30 20 1 21 25
M  V30 21 1 26 27
M  V30 22 1 26 28
M  V30 23 1 26 29
M  V30 24 1 26 30
M  V30 25 1 31 32
M  V30 26 1 31 33
M  V30 27 1 31 34
M  V30 28 1 31 35
M  V30 29 1 36 37
M  V30 30 1 36 38
M  V30 31 1 36 39
M  V30 32 1 36 40
M  V30 33 1 41 42
M  V30 34 1 41 43
M  V30 35 1 41 44
M  V30 36 1 41 45
M  V30 37 1 46 47
M  V30 38 1 47 48
M  V30 39 1 49 50
M  V30 40 1 50 51
M  V30 41 1 52 53
M  V30 42 1 53 54
M  V30 43 1 55 56
M  V30 44 1 56 57
M  V30 45 1 58 59
M  V30 46 1 59 60
M  V30 47 1 61 62
M  V30 48 1 62 63
M  V30 49 1 64 65
M  V30 50 1 65 66
M  V30 51 1 67 68
M  V30 52 1 68 69
M  V30 53 1 70 71
M  V30 54 1 71 72
M  V30 55 1 73 74
M  V30 56 1 74 75
M  V30 57 1 76 77
M  V30 58 1 77 78
M  V30 59 1 79 80
M  V30 60 1 80 81
M  V30 61 1 82 83
M  V30 62 1 83 84
M  V30 63 1 85 86
M  V30 64 1 86 87
M  V30 65 1 88 89
M  V30 66 1 89 90
M  V30 67 1 91 92
M  V30 68 1 92 93
M  V30 69 1 94 95
M  V30 70 1 95 96
M  V30 71 1 97 98
M  V30 72 1 98 99
M  V30 73 1 2 49
M  V30 74 1 3 91
M  V30 75 1 4 64
M  V30 76 1 5 67
M  V30 77 1 7 46
M  V30 78 1 8 82
M  V30 79 1 9 88
M  V30 80 1 10 79
M  V30 81 1 12 85
M  V30 82 1 13 97
M  V30 83 1 14 61
M  V30 84 1 15 76
M  V30 85 1 17 63
M  V30 86 1 18 55
M  V30 87 1 19 52
M  V30 88 1 20 58
M  V30 89 1 22 48
M  V30 90 1 23 99
M  V30 91 1 24 54
M  V30 92 1 25 73
M  V30 93 1 27 57
M  V30 94 1 28 94
M  V30 95 1 29 66
M  V30 96 1 30 60
M  V30 97 1 32 51
M  V30 98 1 33 96
M  V30 99 1 34 78
M  V30 100 1 35 87
M  V30 101 1 37 75
M  V30 102 1 38 70
M  V30 103 1 39 90
M  V30 104 1 40 69
M  V30 105 1 42 84
M  V30 106 1 43 93
M  V30 107 1 44 72
M  V30 108 1 45 81
M  V30 END BOND
M  V30 END CTAB
M  END

$$$$
