
     RDKit          3D

  0  0  0  0  0  0  0  0  0  0999 V3000
M  V30 BEGIN CTAB
M  V30 COUNTS 99 108 0 0 0
M  V30 BEGIN ATOM
M  V30 1 Pd 2.0967 -3.6290 -2.2369 0
M  V30 2 Pb 1.8367 -4.2529 -1.4957 0
M  V30 3 Pb 1.2287 -3.9018 -2.6605 0
M  V30 4 Pb 2.9885 -3.4150 -1.8267 0
M  V30 5 Pb 2.3699 -3.0361 -3.0001 0
M  V30 6 Pd -6.4249 0.3588 -4.3940 0
M  V30 7 Pb -6.1373 0.6074 -3.4682 0
M  V30 8 Pb -6.8549 -0.4800 -4.0578 0
M  V30 9 Pb -5.8752 1.1047 -4.7642 0
M  V30 10 Pb -6.6830 0.0849 -5.3192 0
M  V30 11 Pd -1.2550 2.4696 5.5675 0
M  V30 12 Pb -0.6507 1.7672 5.9341 0
M  V30 13 Pb -1.8924 3.1466 5.1942 0
M  V30 14 Pb -0.8289 3.1493 6.1693 0
M  V30 15 Pb -1.6275 1.7605 4.9622 0
M  V30 16 Pd 3.6080 4.6460 5.5989 0
M  V30 17 Pb 2.8517 4.7090 6.2539 0
M  V30 18 Pb 4.3266 4.5397 4.9128 0
M  V30 19 Pb 3.1335 5.2986 5.0137 0
M  V30 20 Pb 4.0803 3.9336 6.1203 0
M  V30 21 Pd -1.9394 4.3917 0.7308 0
M  V30 22 Pb -2.6132 3.7231 0.4097 0
M  V30 23 Pb -2.4981 4.5590 1.5424 0
M  V30 24 Pb -1.2771 5.0482 1.0847 0
M  V30 25 Pb -1.3119 4.1991 -0.0247 0
M  V30 26 Pd 7.0697 -1.0996 3.1949 0
M  V30 27 Pb 7.1680 -0.1499 2.9039 0
M  V30 28 Pb 6.8841 -2.0318 3.4940 0
M  V30 29 Pb 7.0150 -1.4282 2.2511 0
M  V30 30 Pb 6.9861 -0.7482 4.1290 0
M  V30 31 Pd 0.8725 -4.1489 3.3037 0
M  V30 32 Pb 0.8101 -4.6776 2.4573 0
M  V30 33 Pb 1.7372 -4.5969 3.5139 0
M  V30 34 Pb 0.0512 -3.6096 3.1055 0
M  V30 35 Pb 0.9814 -3.5910 4.1228 0
M  V30 36 Pd 0.7204 0.7765 -5.6231 0
M  V30 37 Pb 0.9582 1.4152 -4.8940 0
M  V30 38 Pb 0.4312 0.1298 -6.3258 0
M  V30 39 Pb -0.0880 1.3375 -5.7995 0
M  V30 40 Pb 1.4990 0.1826 -5.4167 0
M  V30 41 Pd -4.7923 -3.7219 -6.1570 0
M  V30 42 Pb -5.5132 -3.7620 -5.4626 0
M  V30 43 Pb -4.1371 -4.1895 -5.5629 0
M  V30 44 Pb -4.0502 -3.5723 -6.8052 0
M  V30 45 Pb -5.4112 -3.1851 -6.7266 0
M  V30 46 Ag -5.9065 0.7824 -2.7754 0
M  V30 47 Fe -4.5047 2.0248 -1.3125 0
M  V30 48 Ag -3.1426 3.2225 0.2232 0
M  V30 49 Ag -0.7785 4.0696 -0.5375 0
M  V30 50 Fe 0.1404 2.9869 -2.4410 0
M  V30 51 Ag 1.0668 1.9124 -4.3454 0
M  V30 52 Ag 2.7508 5.7307 4.5402 0
M  V30 53 Fe 0.9993 5.7348 2.9420 0
M  V30 54 Ag -0.7783 5.5144 1.3884 0
M  V30 55 Ag 4.8576 4.3784 4.4099 0
M  V30 56 Fe 6.1008 2.5832 3.4809 0
M  V30 57 Ag 7.1657 0.5858 2.7689 0
M  V30 58 Ag -1.8472 1.1868 4.5247 0
M  V30 59 Fe -1.2829 -0.9768 3.7106 0
M  V30 60 Ag -0.5178 -3.1232 3.0254 0
M  V30 61 Ag -0.2365 1.1889 6.1599 0
M  V30 62 Fe 0.4810 -0.9847 5.5437 0
M  V30 63 Ag 1.0578 -3.1239 4.7005 0
M  V30 64 Ag 4.4791 3.3639 6.4050 0
M  V30 65 Fe 5.7025 1.4338 5.7501 0
M  V30 66 Ag 6.8423 -0.4173 4.7884 0
M  V30 67 Ag -5.3784 1.5842 -5.0510 0
M  V30 68 Fe -3.0617 1.7892 -5.5230 0
M  V30 69 Ag -0.7167 1.7365 -5.8854 0
M  V30 70 Ag 3.6848 -3.2507 -1.5863 0
M  V30 71 Fe 5.2866 -2.4728 -0.0092 0
M  V30 72 Ag 6.8983 -1.6990 1.5600 0
M  V30 73 Ag 0.1655 -0.3727 -6.8113 0
M  V30 74 Fe -1.5861 -1.9292 -7.1717 0
M  V30 75 Ag -3.4588 -3.3822 -7.2186 0
M  V30 76 Ag 0.5816 -4.2004 -2.9071 0
M  V30 77 Fe -1.5074 -4.2973 -4.0387 0
M  V30 78 Ag -3.6076 -4.5055 -5.1345 0
M  V30 79 Ag 6.6454 -2.7157 3.6717 0
M  V30 80 Fe 4.6356 -3.9673 3.7453 0
M  V30 81 Ag 2.4288 -4.8254 3.6733 0
M  V30 82 Ba 1.5832 -4.7630 -1.0026 0
M  V30 83 Ga 1.2087 -4.8850 0.4213 0
M  V30 84 Ba 0.8147 -5.0896 1.8305 0
M  V30 85 Ba -6.8481 -0.1798 -5.9995 0
M  V30 86 Ga -6.4059 -1.4357 -6.6255 0
M  V30 87 Ba -5.8691 -2.7229 -7.0944 0
M  V30 88 Ba -7.1034 -1.1617 -3.8635 0
M  V30 89 Ga -6.6347 -2.4733 -4.3572 0
M  V30 90 Ba -6.0576 -3.6989 -4.9477 0
M  V30 91 Ba -0.4759 3.6290 6.6301 0
M  V30 92 Ga 0.8863 4.2034 6.6779 0
M  V30 93 Ba 2.2535 4.7671 6.7069 0
M  V30 94 Ba 2.6591 -2.6062 -3.5484 0
M  V30 95 Ga 2.3210 -1.4434 -4.3964 0
M  V30 96 Ba 2.0684 -0.2885 -5.2844 0
M  V30 97 Ba -2.3899 3.6300 4.9037 0
M  V30 98 Ga -2.6462 4.1655 3.5521 0
M  V30 99 Ba -2.8659 4.6768 2.1848 0
M  V30 END ATOM
M  V30 BEGIN BOND
M  V30 1 1 1 2
M  V30 2 1 1 3
M  V30 3 1 1 4
M  V30 4 1 1 5
M  V30 5 1 6 7
M  V30 6 1 6 8
M  V30 7 1 6 9
M  V30 8 1 6 10
M  V30 9 1 11 12
M  V30 10 1 11 13
M  V30 11 1 11 14
M  V30 12 1 11 15
M  V30 13 1 16 17
M  V30 14 1 16 18
M  V30 15 1 16 19
M  V30 16 1 16 20
M  V30 17 1 21 22
M  V30 18 1 21 23
M  V30 19 1 21 24
M  V30 20 1 21 25
M  V30 21 1 26 27
M  V30 22 1 26 28
M  V30 23 1 26 29
M  V30 24 1 26 30
M  V30 25 1 31 32
M  V30 26 1 31 33
M  V30 27 1 31 34
M  V30 28 1 31 35
M  V30 29 1 36 37
M  V30 30 1 36 38
M  V30 31 1 36 39
M  V30 32 1 36 40
M  V30 33 1 41 42
M  V30 34 1 41 43
M  V30 35 1 41 44
M  V30 36 1 41 45
M  V30 37 1 46 47
M  V30 38 1 47 48
M  V30 39 1 49 50
M  V30 40 1 50 51
M  V30 41 1 52 53
M  V30 42 1 53 54
M  V30 43 1 55 56
M  V30 44 1 56 57
M  V30 45 1 58 59
M  V30 46 1 59 60
M  V30 47 1 61 62
M  V30 48 1 62 63
M  V30 49 1 64 65
M  V30 50 1 65 66
M  V30 51 1 67 68
M  V30 52 1 68 69
M  V30 53 1 70 71
M  V30 54 1 71 72
M  V30 55 1 73 74
M  V30 56 1 74 75
M  V30 57 1 76 77
M  V30 58 1 77 78
M  V30 59 1 79 80
M  V30 60 1 80 81
M  V30 61 1 82 83
M  V30 62 1 83 84
M  V30 63 1 85 86
M  V30 64 1 86 87
M  V30 65 1 88 89
M  V30 66 1 89 90
M  V30 67 1 91 92
M  V30 68 1 92 93
M  V30 69 1 94 95
M  V30 70 1 95 96
M  V30 71 1 97 98
M  V30 72 1 98 99
M  V30 73 1 2 82
M  V30 74 1 3 76
M  V30 75 1 4 70
M  V30 76 1 5 94
M  V30 77 1 7 46
M  V30 78 1 8 88
M  V30 79 1 9 67
M  V30 80 1 10 85
M  V30 81 1 12 61
M  V30 82 1 13 97
M  V30 83 1 14 91
M  V30 84 1 15 58
M  V30 85 1 17 93
M  V30 86 1 18 55
M  V30 87 1 19 52
M  V30 88 1 20 64
M  V30 89 1 22 48
M  V30 90 1 23 99
M  V30 91 1 24 54
M  V30 92 1 25 49
M  V30 93 1 27 57
M  V30 94 1 28 79
M  V30 95 1 29 72
M  V30 96 1 30 66
M  V30 97 1 32 84
M  V30 98 1 33 81
M  V30 99 1 34 60
M  V30 100 1 35 63
M  V30 101 1 37 51
M  V30 102 1 38 73
M  V30 103 1 39 69
M  V30 104 1 40 96
M  V30 105 1 42 90
M  V30 106 1 43 78
M  V30 107 1 44 75
M  V30 108 1 45 87
M  V30 END BOND
M  V30 END CTAB
M  END

$$$$
