
     RDKit          3D

  0  0  0  0  0  0  0  0  0  0999 V3000
M  V30 BEGIN CTAB
M  V30 COUNTS 99 108 0 0 0
M  V30 BEGIN ATOM
M  V30 1 Pd -3.4594 -4.6835 -3.4776 0
M  V30 2 Pb -2.4957 -4.6078 -3.7134 0
M  V30 3 Pb -4.4067 -4.8174 -3.1789 0
M  V30 4 Pb -3.3577 -5.6770 -3.5026 0
M  V30 5 Pb -3.5360 -3.6805 -3.4734 0
M  V30 6 Pd -4.6746 -7.9040 0.1023 0
M  V30 7 Pb -5.0740 -7.5478 0.9408 0
M  V30 8 Pb -4.2585 -8.2109 -0.7490 0
M  V30 9 Pb -5.3608 -7.4114 -0.4380 0
M  V30 10 Pb -3.8924 -8.2788 0.6366 0
M  V30 11 Pd 0.3275 3.9766 -2.3565 0
M  V30 12 Pb 1.2813 3.6648 -2.4377 0
M  V30 13 Pb -0.6552 4.1584 -2.3046 0
M  V30 14 Pb 0.4964 4.8815 -2.7538 0
M  V30 15 Pb 0.1372 3.0917 -1.9566 0
M  V30 16 Pd 1.9070 8.8669 -0.5360 0
M  V30 17 Pb 0.9976 8.9563 -0.1339 0
M  V30 18 Pb 2.8156 8.5845 -0.8182 0
M  V30 19 Pb 2.2956 9.1366 0.3423 0
M  V30 20 Pb 1.5424 8.5336 -1.4067 0
M  V30 21 Pd 2.8410 -3.0550 -0.0060 0
M  V30 22 Pb 3.1369 -2.5735 0.8188 0
M  V30 23 Pb 3.2583 -3.9261 0.2473 0
M  V30 24 Pb 2.2537 -2.2808 -0.1984 0
M  V30 25 Pb 2.5427 -3.4576 -0.8660 0
M  V30 26 Pd 0.0925 -6.1103 2.5427 0
M  V30 27 Pb -0.6837 -5.8209 3.0924 0
M  V30 28 Pb 0.3876 -5.1625 2.4708 0
M  V30 29 Pb -0.3525 -7.0157 2.4375 0
M  V30 30 Pb 0.9359 -6.3849 2.0742 0
M  V30 31 Pd 4.1484 2.3275 1.0348 0
M  V30 32 Pb 3.9530 1.4081 1.4009 0
M  V30 33 Pb 4.1901 2.6690 1.9761 0
M  V30 34 Pb 4.0213 2.0937 0.0689 0
M  V30 35 Pb 4.4492 3.2112 0.6830 0
M  V30 36 Pd -2.3933 0.4610 -0.6924 0
M  V30 37 Pb -2.1803 0.9870 0.1299 0
M  V30 38 Pb -2.8368 1.2739 -1.0756 0
M  V30 39 Pb -2.6659 -0.0703 -1.5040 0
M  V30 40 Pb -1.8301 -0.2612 -0.2891 0
M  V30 41 Pd 1.2407 6.1131 3.3429 0
M  V30 42 Pb 1.8454 6.9059 3.3817 0
M  V30 43 Pb 0.5342 6.7111 2.9501 0
M  V30 44 Pb 1.9704 5.5153 3.6877 0
M  V30 45 Pb 0.6200 5.3324 3.2976 0
M  V30 46 Ag -2.0362 1.3565 0.7655 0
M  V30 47 Fe -0.9337 3.0605 1.9962 0
M  V30 48 Ag 0.1493 4.7517 3.2615 0
M  V30 49 Ag -5.1919 -7.2138 1.5894 0
M  V30 50 Fe -3.5560 -6.2321 2.9640 0
M  V30 51 Ag -1.3201 -5.6800 3.4447 0
M  V30 52 Ag 0.5212 -4.4461 2.3102 0
M  V30 53 Fe -0.4166 -2.5654 1.2040 0
M  V30 54 Ag -1.3334 -0.6772 0.0930 0
M  V30 55 Ag 0.0112 2.4269 -1.6584 0
M  V30 56 Fe 0.9030 0.3415 -0.9905 0
M  V30 57 Ag 1.7339 -1.7623 -0.3022 0
M  V30 58 Ag -1.7585 -4.5934 -3.8195 0
M  V30 59 Fe 0.3227 -4.1743 -2.7689 0
M  V30 60 Ag 2.2785 -3.6975 -1.5203 0
M  V30 61 Ag 3.4558 8.2214 -0.9119 0
M  V30 62 Fe 4.2395 6.0602 -0.3424 0
M  V30 63 Ag 4.6910 3.8462 0.3701 0
M  V30 64 Ba 0.5730 5.5690 -3.0504 0
M  V30 65 Ga 0.9436 6.9105 -2.5534 0
M  V30 66 Ba 1.3134 8.2558 -2.0661 0
M  V30 67 Ba -3.2934 -8.5530 1.0330 0
M  V30 68 Ga -2.0258 -8.0733 1.6707 0
M  V30 69 Ba -0.7442 -7.6651 2.3297 0
M  V30 70 Ba -5.0922 -4.9967 -2.9248 0
M  V30 71 Ga -5.5083 -5.9787 -1.8991 0
M  V30 72 Ba -5.8168 -6.9840 -0.8581 0
M  V30 73 Ba 4.1773 2.9553 2.6719 0
M  V30 74 Ga 3.3573 4.0076 3.3128 0
M  V30 75 Ba 2.5239 5.0636 3.9301 0
M  V30 76 Ba 2.5875 9.2671 1.0178 0
M  V30 77 Ga 2.4727 8.4506 2.2354 0
M  V30 78 Ba 2.2587 7.5284 3.3606 0
M  V30 79 Ba -3.2787 -6.4218 -3.5042 0
M  V30 80 Ga -3.5947 -7.4444 -2.4955 0
M  V30 81 Ba -3.9541 -8.3702 -1.4109 0
M  V30 82 Ba 3.4361 -4.6330 0.4224 0
M  V30 83 Ga 2.5761 -5.6296 1.0943 0
M  V30 84 Ba 1.6145 -6.5215 1.7761 0
M  V30 85 Ba -3.5672 -2.9275 -3.5292 0
M  V30 86 Ga -3.2219 -1.7038 -2.7657 0
M  V30 87 Ba -2.9333 -0.3929 -2.1350 0
M  V30 88 Ba 1.9425 3.3001 -2.5054 0
M  V30 89 Ga 2.9383 2.6821 -1.5947 0
M  V30 90 Ba 3.9339 2.0703 -0.6796 0
M  V30 91 Ba 3.3186 -2.1413 1.4053 0
M  V30 92 Ga 3.5957 -0.6924 1.5494 0
M  V30 93 Ba 3.8781 0.7463 1.7648 0
M  V30 94 Ba 0.3627 8.9187 0.2624 0
M  V30 95 Ga 0.1291 8.0724 1.4529 0
M  V30 96 Ba 0.0351 7.1780 2.6278 0
M  V30 97 Ba -1.4051 4.1764 -2.2634 0
M  V30 98 Ga -2.3136 3.0994 -1.8165 0
M  V30 99 Ba -3.0866 1.9325 -1.3405 0
M  V30 END ATOM
M  V30 BEGIN BOND
M  V30 1 1 1 2
M  V30 2 1 1 3
M  V30 3 1 1 4
M  V30 4 1 1 5
M  V30 5 1 6 7
M  V30 6 1 6 8
M  V30 7 1 6 9
M  V30 8 1 6 10
M  V30 9 1 11 12
M  V30 10 1 11 13
M  V30 11 1 11 14
M  V30 12 1 11 15
M  V30 13 1 16 17
M  V30 14 1 16 18
M  V30 15 1 16 19
M  V30 16 1 16 20
M  V30 17 1 21 22
M  V30 18 1 21 23
M  V30 19 1 21 24
M  V30 20 1 21 25
M  V30 21 1 26 27
M  V30 22 1 26 28
M  V30 23 1 26 29
M  V30 24 1 26 30
M  V30 25 1 31 32
M  V30 26 1 31 33
M  V30 27 1 31 34
M  V30 28 1 31 35
M  V30 29 1 36 37
M  V30 30 1 36 38
M  V30 31 1 36 39
M  V30 32 1 36 40
M  V30 33 1 41 42
M  V30 34 1 41 43
M  V30 35 1 41 44
M  V30 36 1 41 45
M  V30 37 1 46 47
M  V30 38 1 47 48
M  V30 39 1 49 50
M  V30 40 1 50 51
M  V30 41 1 52 53
M  V30 42 1 53 54
M  V30 43 1 55 56
M  V30 44 1 56 57
M  V30 45 1 58 59
M  V30 46 1 59 60
M  V30 47 1 61 62
M  V30 48 1 62 63
M  V30 49 1 64 65
M  V30 50 1 65 66
M  V30 51 1 67 68
M  V30 52 1 68 69
M  V30 53 1 70 71
M  V30 54 1 71 72
M  V30 55 1 73 74
M  V30 56 1 74 75
M  V30 57 1 76 77
M  V30 58 1 77 78
M  V30 59 1 79 80
M  V30 60 1 80 81
M  V30 61 1 82 83
M  V30 62 1 83 84
M  V30 63 1 85 86
M  V30 64 1 86 87
M  V30 65 1 88 89
M  V30 66 1 89 90
M  V30 67 1 91 92
M  V30 68 1 92 93
M  V30 69 1 94 95
M  V30 70 1 95 96
M  V30 71 1 97 98
M  V30 72 1 98 99
M  V30 73 1 2 58
M  V30 74 1 3 70
M  V30 75 1 4 79
M  V30 76 1 5 85
M  V30 77 1 7 49
M  V30 78 1 8 81
M  V30 79 1 9 72
M  V30 80 1 10 67
M  V30 81 1 12 88
M  V30 82 1 13 97
M  V30 83 1 14 64
M  V30 84 1 15 55
M  V30 85 1 17 94
M  V30 86 1 18 61
M  V30 87 1 19 76
M  V30 88 1 20 66
M  V30 89 1 22 91
M  V30 90 1 23 82
M  V30 91 1 24 57
M  V30 92 1 25 60
M  V30 93 1 27 51
M  V30 94 1 28 52
M  V30 95 1 29 69
M  V30 96 1 30 84
M  V30 97 1 32 93
M  V30 98 1 33 73
M  V30 99 1 34 90
M  V30 100 1 35 63
M  V30 101 1 37 46
M  V30 102 1 38 99
M  V30 103 1 39 87
M  V30 104 1 40 54
M  V30 105 1 42 78
M  V30 106 1 43 96
M  V30 107 1 44 75
M  V30 108 1 45 48
M  V30 END BOND
M  V30 END CTAB
M  END

$$$$
