
     RDKit          3D

  0  0  0  0  0  0  0  0  0  0999 V3000
M  V30 BEGIN CTAB
M  V30 COUNTS 99 108 0 0 0
M  V30 BEGIN ATOM
M  V30 1 Pd 2.6208 3.6635 2.8442 0
M  V30 2 Pb 3.4737 3.2652 2.5085 0
M  V30 3 Pb 2.7453 4.4079 2.1836 0
M  V30 4 Pb 2.5990 2.9653 3.5602 0
M  V30 5 Pb 1.7233 3.9852 3.1553 0
M  V30 6 Pd -3.8190 4.0666 -5.2406 0
M  V30 7 Pb -3.9832 3.0853 -5.3417 0
M  V30 8 Pb -3.6657 5.0423 -5.1508 0
M  V30 9 Pb -4.7458 4.2295 -4.9109 0
M  V30 10 Pb -2.8263 3.9761 -5.3724 0
M  V30 11 Pd 1.8298 -5.5346 -2.3404 0
M  V30 12 Pb 2.3573 -4.6994 -2.4957 0
M  V30 13 Pb 1.1048 -5.2004 -2.9431 0
M  V30 14 Pb 1.2895 -6.3642 -2.1893 0
M  V30 15 Pb 2.5488 -5.8551 -1.7198 0
M  V30 16 Pd -1.3983 -7.0440 1.5311 0
M  V30 17 Pb -1.2226 -7.4979 0.6588 0
M  V30 18 Pb -1.5049 -6.5496 2.3915 0
M  V30 19 Pb -2.2336 -6.6181 1.1866 0
M  V30 20 Pb -0.5289 -7.3837 1.8868 0
M  V30 21 Pd -4.4247 -1.2768 -2.6779 0
M  V30 22 Pb -4.4224 -0.6181 -3.4343 0
M  V30 23 Pb -3.8667 -1.8819 -3.2447 0
M  V30 24 Pb -4.4939 -2.0082 -1.9990 0
M  V30 25 Pb -4.9156 -0.6700 -2.0482 0
M  V30 26 Pd 3.4806 -3.6229 5.3551 0
M  V30 27 Pb 2.5056 -3.7375 5.5348 0
M  V30 28 Pb 4.4411 -3.5266 5.0978 0
M  V30 29 Pb 3.4114 -2.6599 5.6111 0
M  V30 30 Pb 3.4859 -4.5685 5.0334 0
M  V30 31 Pd 5.5197 -2.9473 0.5516 0
M  V30 32 Pb 5.7092 -1.9718 0.6657 0
M  V30 33 Pb 5.9325 -3.1086 1.4498 0
M  V30 34 Pb 5.3074 -3.9208 0.4423 0
M  V30 35 Pb 5.1056 -2.7722 -0.3416 0
M  V30 36 Pd -4.8135 5.2483 1.4461 0
M  V30 37 Pb -5.1608 4.3127 1.3665 0
M  V30 38 Pb -4.4094 6.1628 1.4728 0
M  V30 39 Pb -5.4220 5.4528 0.6791 0
M  V30 40 Pb -4.1487 5.0224 2.1598 0
M  V30 41 Pd 1.0006 7.4461 -1.4631 0
M  V30 42 Pb 0.2917 7.8173 -2.0490 0
M  V30 43 Pb 1.7211 7.0851 -0.8709 0
M  V30 44 Pb 0.6000 7.9780 -0.7210 0
M  V30 45 Pb 1.2089 6.8056 -2.2097 0
M  V30 46 Ag 4.0823 2.9207 2.2391 0
M  V30 47 Fe 5.0139 0.8669 1.4950 0
M  V30 48 Ag 5.8380 -1.2406 0.7744 0
M  V30 49 Ag -5.2435 -0.2620 -1.5065 0
M  V30 50 Fe -5.3539 1.6797 -0.1380 0
M  V30 51 Ag -5.4448 3.6333 1.2149 0
M  V30 52 Ag -2.8381 -6.2392 0.9583 0
M  V30 53 Fe -3.7159 -4.4194 -0.2900 0
M  V30 54 Ag -4.5821 -2.5951 -1.5395 0
M  V30 55 Ag -1.4862 -6.1605 3.0297 0
M  V30 56 Fe 0.0132 -4.9724 4.4317 0
M  V30 57 Ag 1.7724 -3.8756 5.5838 0
M  V30 58 Ag -2.0706 4.0123 -5.3511 0
M  V30 59 Fe -0.3064 5.0851 -4.1583 0
M  V30 60 Ag 1.2070 6.3105 -2.7822 0
M  V30 61 Ag -3.4966 5.7548 -5.0389 0
M  V30 62 Fe -1.9614 7.0950 -3.8449 0
M  V30 63 Ag -0.2575 8.0260 -2.5002 0
M  V30 64 Ag 0.1355 -7.5417 2.1934 0
M  V30 65 Fe 1.8687 -6.5496 3.4752 0
M  V30 66 Ag 3.3963 -5.2553 4.7491 0
M  V30 67 Ag -5.3453 4.4436 -4.5194 0
M  V30 68 Fe -5.8123 5.0194 -2.2648 0
M  V30 69 Ag -5.8464 5.4904 0.0615 0
M  V30 70 Ag 2.6434 2.4715 4.1237 0
M  V30 71 Fe 2.9718 0.2699 4.9517 0
M  V30 72 Ag 3.2987 -1.9361 5.7681 0
M  V30 73 Ag 1.0319 4.1384 3.4120 0
M  V30 74 Fe -1.2853 4.5326 3.0509 0
M  V30 75 Ag -3.5978 4.9284 2.6625 0
M  V30 76 Ag -3.9962 6.7878 1.5117 0
M  V30 77 Fe -1.9492 7.7282 0.7630 0
M  V30 78 Ag 0.1359 8.2870 -0.2233 0
M  V30 79 Ag 0.5435 -4.9531 -3.3753 0
M  V30 80 Fe -1.4377 -3.6570 -3.5617 0
M  V30 81 Ag -3.4061 -2.3302 -3.6301 0
M  V30 82 Ba -4.1253 2.3579 -5.4563 0
M  V30 83 Ga -4.2621 1.1028 -4.6893 0
M  V30 84 Ba -4.4330 -0.2322 -4.0812 0
M  V30 85 Ba 3.0943 -6.0747 -1.2506 0
M  V30 86 Ga 4.1158 -5.3673 -0.4494 0
M  V30 87 Ba 5.1318 -4.6461 0.3463 0
M  V30 88 Ba 2.7571 -4.0742 -2.6036 0
M  V30 89 Ga 3.7742 -3.3546 -1.8143 0
M  V30 90 Ba 4.7897 -2.6489 -1.0105 0
M  V30 91 Ba 0.8562 -6.9708 -2.0930 0
M  V30 92 Ga -0.0935 -7.4131 -1.0537 0
M  V30 93 Ba -1.0335 -7.8191 0.0089 0
M  V30 94 Ba 2.9693 4.9583 1.7206 0
M  V30 95 Ga 2.5416 5.8735 0.6433 0
M  V30 96 Ba 2.2835 6.8518 -0.4332 0
M  V30 97 Ba 5.1482 -3.4845 4.8539 0
M  V30 98 Ga 5.7161 -3.3394 3.4997 0
M  V30 99 Ba 6.2429 -3.1936 2.1290 0
M  V30 END ATOM
M  V30 BEGIN BOND
M  V30 1 1 1 2
M  V30 2 1 1 3
M  V30 3 1 1 4
M  V30 4 1 1 5
M  V30 5 1 6 7
M  V30 6 1 6 8
M  V30 7 1 6 9
M  V30 8 1 6 10
M  V30 9 1 11 12
M  V30 10 1 11 13
M  V30 11 1 11 14
M  V30 12 1 11 15
M  V30 13 1 16 17
M  V30 14 1 16 18
M  V30 15 1 16 19
M  V30 16 1 16 20
M  V30 17 1 21 22
M  V30 18 1 21 23
M  V30 19 1 21 24
M  V30 20 1 21 25
M  V30 21 1 26 27
M  V30 22 1 26 28
M  V30 23 1 26 29
M  V30 24 1 26 30
M  V30 25 1 31 32
M  V30 26 1 31 33
M  V30 27 1 31 34
M  V30 28 1 31 35
M  V30 29 1 36 37
M  V30 30 1 36 38
M  V30 31 1 36 39
M  V30 32 1 36 40
M  V30 33 1 41 42
M  V30 34 1 41 43
M  V30 35 1 41 44
M  V30 36 1 41 45
M  V30 37 1 46 47
M  V30 38 1 47 48
M  V30 39 1 49 50
M  V30 40 1 50 51
M  V30 41 1 52 53
M  V30 42 1 53 54
M  V30 43 1 55 56
M  V30 44 1 56 57
M  V30 45 1 58 59
M  V30 46 1 59 60
M  V30 47 1 61 62
M  V30 48 1 62 63
M  V30 49 1 64 65
M  V30 50 1 65 66
M  V30 51 1 67 68
M  V30 52 1 68 69
M  V30 53 1 70 71
M  V30 54 1 71 72
M  V30 55 1 73 74
M  V30 56 1 74 75
M  V30 57 1 76 77
M  V30 58 1 77 78
M  V30 59 1 79 80
M  V30 60 1 80 81
M  V30 61 1 82 83
M  V30 62 1 83 84
M  V30 63 1 85 86
M  V30 64 1 86 87
M  V30 65 1 88 89
M  V30 66 1 89 90
M  V30 67 1 91 92
M  V30 68 1 92 93
M  V30 69 1 94 95
M  V30 70 1 95 96
M  V30 71 1 97 98
M  V30 72 1 98 99
M  V30 73 1 2 46
M  V30 74 1 3 94
M  V30 75 1 4 70
M  V30 76 1 5 73
M  V30 77 1 7 82
M  V30 78 1 8 61
M  V30 79 1 9 67
M  V30 80 1 10 58
M  V30 81 1 12 88
M  V30 82 1 13 79
M  V30 83 1 14 91
M  V30 84 1 15 85
M  V30 85 1 17 93
M  V30 86 1 18 55
M  V30 87 1 19 52
M  V30 88 1 20 64
M  V30 89 1 22 84
M  V30 90 1 23 81
M  V30 91 1 24 54
M  V30 92 1 25 49
M  V30 93 1 27 57
M  V30 94 1 28 97
M  V30 95 1 29 72
M  V30 96 1 30 66
M  V30 97 1 32 48
M  V30 98 1 33 99
M  V30 99 1 34 87
M  V30 100 1 35 90
M  V30 101 1 37 51
M  V30 102 1 38 76
M  V30 103 1 39 69
M  V30 104 1 40 75
M  V30 105 1 42 63
M  V30 106 1 43 96
M  V30 107 1 44 78
M  V30 108 1 45 60
M  V30 END BOND
M  V30 END CTAB
M  END

$$$$
