
     RDKit          3D

  0  0  0  0  0  0  0  0  0  0999 V3000
M  V30 BEGIN CTAB
M  V30 COUNTS 99 108 0 0 0
M  V30 BEGIN ATOM
M  V30 1 Pd 2.3971 3.1321 2.0905 0
M  V30 2 Pb 2.5294 3.7651 1.3218 0
M  V30 3 Pb 2.3609 2.5137 2.8780 0
M  V30 4 Pb 3.2502 2.6664 1.8638 0
M  V30 5 Pb 1.5377 3.6068 2.3089 0
M  V30 6 Pd -4.7724 -3.8026 6.2810 0
M  V30 7 Pb -4.8380 -4.0903 5.3246 0
M  V30 8 Pb -3.9784 -4.3894 6.4457 0
M  V30 9 Pb -5.3969 -3.0427 6.1171 0
M  V30 10 Pb -4.6730 -3.4944 7.2236 0
M  V30 11 Pd -0.5939 1.2485 -6.6231 0
M  V30 12 Pb -0.5775 1.9857 -5.9493 0
M  V30 13 Pb -1.5541 1.0953 -6.4071 0
M  V30 14 Pb -0.6416 0.4911 -7.2774 0
M  V30 15 Pb 0.3851 1.3835 -6.7848 0
M  V30 16 Pd 0.7329 -3.7633 -6.2156 0
M  V30 17 Pb 0.2119 -3.3486 -6.9600 0
M  V30 18 Pb 1.5646 -3.3640 -6.5966 0
M  V30 19 Pb -0.0978 -4.1369 -5.7973 0
M  V30 20 Pb 1.2978 -4.0821 -5.4537 0
M  V30 21 Pd -4.8553 -2.1740 -1.4307 0
M  V30 22 Pb -4.8767 -2.7520 -0.6123 0
M  V30 23 Pb -4.8621 -1.6182 -2.2586 0
M  V30 24 Pb -4.5450 -2.9496 -1.9816 0
M  V30 25 Pb -5.0763 -1.3456 -0.9149 0
M  V30 26 Pd 6.3143 -0.5471 -3.1778 0
M  V30 27 Pb 6.1530 -0.7293 -4.1449 0
M  V30 28 Pb 6.6131 0.3868 -3.3666 0
M  V30 29 Pb 6.3955 -0.3406 -2.2068 0
M  V30 30 Pb 5.9075 -1.4428 -2.9922 0
M  V30 31 Pd 3.2087 3.5886 -3.6223 0
M  V30 32 Pb 3.1986 4.0931 -2.7543 0
M  V30 33 Pb 4.2068 3.5014 -3.5979 0
M  V30 34 Pb 3.1985 3.1056 -4.5018 0
M  V30 35 Pb 2.2183 3.6968 -3.6789 0
M  V30 36 Pd -3.1249 2.9893 4.0730 0
M  V30 37 Pb -3.6061 2.8133 3.2147 0
M  V30 38 Pb -2.6552 3.1320 4.9444 0
M  V30 39 Pb -3.8404 2.4311 4.4981 0
M  V30 40 Pb -2.4182 3.5483 3.6309 0
M  V30 41 Pd 0.7354 -0.8634 8.7090 0
M  V30 42 Pb 0.7308 -1.8461 8.5118 0
M  V30 43 Pb 1.3968 -0.6818 7.9839 0
M  V30 44 Pb 0.5772 0.1180 8.7780 0
M  V30 45 Pb -0.0167 -1.0351 9.3378 0
M  V30 46 Ag -4.8794 -4.2966 4.6038 0
M  V30 47 Fe -4.8886 -3.7259 2.2966 0
M  V30 48 Ag -4.9046 -3.2222 -0.0260 0
M  V30 49 Ag -5.1877 -0.6744 -0.5970 0
M  V30 50 Fe -4.6120 0.9793 1.0087 0
M  V30 51 Ag -4.0249 2.6206 2.6229 0
M  V30 52 Ag -0.7176 -4.3990 -5.4607 0
M  V30 53 Fe -2.5142 -4.0063 -3.9546 0
M  V30 54 Ag -4.2589 -3.4814 -2.4280 0
M  V30 55 Ag 2.2083 -3.0488 -6.8102 0
M  V30 56 Fe 4.1450 -1.9577 -5.9837 0
M  V30 57 Ag 5.9368 -0.9106 -4.8365 0
M  V30 58 Ag -4.5026 -3.2442 7.9051 0
M  V30 59 Fe -2.7009 -2.2149 9.0448 0
M  V30 60 Ag -0.6527 -1.2131 9.6806 0
M  V30 61 Ag -3.3027 -4.6677 6.6218 0
M  V30 62 Fe -1.2468 -3.8263 7.4711 0
M  V30 63 Ag 0.5761 -2.5582 8.3229 0
M  V30 64 Ag 1.7894 -4.2253 -4.9046 0
M  V30 65 Fe 3.6769 -3.2848 -3.8094 0
M  V30 66 Ag 5.5262 -2.0861 -2.9202 0
M  V30 67 Ag -5.7290 -2.3800 6.0171 0
M  V30 68 Fe -5.1762 -0.1561 5.3912 0
M  V30 69 Ag -4.4023 1.9943 4.7421 0
M  V30 70 Ag 3.8773 2.2878 1.7119 0
M  V30 71 Fe 5.1940 1.0690 0.1612 0
M  V30 72 Ag 6.4042 -0.1235 -1.4931 0
M  V30 73 Ag -2.2737 3.2160 5.5848 0
M  V30 74 Fe -0.9348 2.1598 7.2350 0
M  V30 75 Ag 0.3605 0.8293 8.7120 0
M  V30 76 Ag 2.4802 2.0245 3.4376 0
M  V30 77 Fe 2.1038 0.7841 5.4291 0
M  V30 78 Ag 1.8369 -0.5131 7.4023 0
M  V30 79 Ag -2.2559 0.9564 -6.1962 0
M  V30 80 Fe -3.6212 -0.1035 -4.5735 0
M  V30 81 Ag -4.8635 -1.2076 -2.8829 0
M  V30 82 Ba 2.6664 4.2726 0.7808 0
M  V30 83 Ga 2.9073 4.3342 -0.6784 0
M  V30 84 Ba 3.1599 4.5087 -2.1265 0
M  V30 85 Ba 1.1245 1.4903 -6.8653 0
M  V30 86 Ga 2.1602 2.1223 -6.0203 0
M  V30 87 Ba 3.1899 2.7559 -5.1692 0
M  V30 88 Ba -0.5801 2.5258 -5.4304 0
M  V30 89 Ga 0.4437 3.1603 -4.5829 0
M  V30 90 Ba 1.4783 3.7860 -3.7420 0
M  V30 91 Ba -0.7270 -0.0918 -7.7450 0
M  V30 92 Ga -0.4392 -1.5368 -7.6555 0
M  V30 93 Ba -0.1268 -2.9723 -7.5121 0
M  V30 94 Ba 0.9162 4.0247 2.4099 0
M  V30 95 Ga -0.4835 3.9432 2.8863 0
M  V30 96 Ba -1.8950 3.9998 3.3306 0
M  V30 97 Ba 6.7736 1.1108 -3.4700 0
M  V30 98 Ga 5.8890 2.2896 -3.5480 0
M  V30 99 Ba 4.9555 3.4307 -3.6177 0
M  V30 END ATOM
M  V30 BEGIN BOND
M  V30 1 1 1 2
M  V30 2 1 1 3
M  V30 3 1 1 4
M  V30 4 1 1 5
M  V30 5 1 6 7
M  V30 6 1 6 8
M  V30 7 1 6 9
M  V30 8 1 6 10
M  V30 9 1 11 12
M  V30 10 1 11 13
M  V30 11 1 11 14
M  V30 12 1 11 15
M  V30 13 1 16 17
M  V30 14 1 16 18
M  V30 15 1 16 19
M  V30 16 1 16 20
M  V30 17 1 21 22
M  V30 18 1 21 23
M  V30 19 1 21 24
M  V30 20 1 21 25
M  V30 21 1 26 27
M  V30 22 1 26 28
M  V30 23 1 26 29
M  V30 24 1 26 30
M  V30 25 1 31 32
M  V30 26 1 31 33
M  V30 27 1 31 34
M  V30 28 1 31 35
M  V30 29 1 36 37
M  V30 30 1 36 38
M  V30 31 1 36 39
M  V30 32 1 36 40
M  V30 33 1 41 42
M  V30 34 1 41 43
M  V30 35 1 41 44
M  V30 36 1 41 45
M  V30 37 1 46 47
M  V30 38 1 47 48
M  V30 39 1 49 50
M  V30 40 1 50 51
M  V30 41 1 52 53
M  V30 42 1 53 54
M  V30 43 1 55 56
M  V30 44 1 56 57
M  V30 45 1 58 59
M  V30 46 1 59 60
M  V30 47 1 61 62
M  V30 48 1 62 63
M  V30 49 1 64 65
M  V30 50 1 65 66
M  V30 51 1 67 68
M  V30 52 1 68 69
M  V30 53 1 70 71
M  V30 54 1 71 72
M  V30 55 1 73 74
M  V30 56 1 74 75
M  V30 57 1 76 77
M  V30 58 1 77 78
M  V30 59 1 79 80
M  V30 60 1 80 81
M  V30 61 1 82 83
M  V30 62 1 83 84
M  V30 63 1 85 86
M  V30 64 1 86 87
M  V30 65 1 88 89
M  V30 66 1 89 90
M  V30 67 1 91 92
M  V30 68 1 92 93
M  V30 69 1 94 95
M  V30 70 1 95 96
M  V30 71 1 97 98
M  V30 72 1 98 99
M  V30 73 1 2 82
M  V30 74 1 3 76
M  V30 75 1 4 70
M  V30 76 1 5 94
M  V30 77 1 7 46
M  V30 78 1 8 61
M  V30 79 1 9 67
M  V30 80 1 10 58
M  V30 81 1 12 88
M  V30 82 1 13 79
M  V30 83 1 14 91
M  V30 84 1 15 85
M  V30 85 1 17 93
M  V30 86 1 18 55
M  V30 87 1 19 52
M  V30 88 1 20 64
M  V30 89 1 22 48
M  V30 90 1 23 81
M  V30 91 1 24 54
M  V30 92 1 25 49
M  V30 93 1 27 57
M  V30 94 1 28 97
M  V30 95 1 29 72
M  V30 96 1 30 66
M  V30 97 1 32 84
M  V30 98 1 33 99
M  V30 99 1 34 87
M  V30 100 1 35 90
M  V30 101 1 37 51
M  V30 102 1 38 73
M  V30 103 1 39 69
M  V30 104 1 40 96
M  V30 105 1 42 63
M  V30 106 1 43 78
M  V30 107 1 44 75
M  V30 108 1 45 60
M  V30 END BOND
M  V30 END CTAB
M  END

$$$$
