
     RDKit          3D

  0  0  0  0  0  0  0  0  0  0999 V3000
M  V30 BEGIN CTAB
M  V30 COUNTS 99 108 0 0 0
M  V30 BEGIN ATOM
M  V30 1 Pd 2.8239 -1.3330 -4.3575 0
M  V30 2 Pb 2.3468 -2.0778 -4.8261 0
M  V30 3 Pb 3.2814 -0.5767 -3.8883 0
M  V30 4 Pb 2.4530 -0.6793 -5.0181 0
M  V30 5 Pb 3.1552 -1.9769 -3.6675 0
M  V30 6 Pd 5.5093 3.8517 5.6017 0
M  V30 7 Pb 4.5196 3.8901 5.7431 0
M  V30 8 Pb 5.4636 4.5033 4.8450 0
M  V30 9 Pb 5.5795 3.0652 6.2057 0
M  V30 10 Pb 6.4856 3.7528 5.4291 0
M  V30 11 Pd -6.2302 -3.1149 0.1903 0
M  V30 12 Pb -5.7384 -3.9724 0.2899 0
M  V30 13 Pb -6.0156 -2.9244 1.1464 0
M  V30 14 Pb -6.7573 -2.2636 0.1074 0
M  V30 15 Pb -6.3969 -3.3446 -0.7864 0
M  V30 16 Pd -5.9405 2.6484 -0.2808 0
M  V30 17 Pb -6.5634 1.8637 -0.2143 0
M  V30 18 Pb -5.3328 3.4322 -0.3468 0
M  V30 19 Pb -5.8114 2.6688 0.7106 0
M  V30 20 Pb -6.0382 2.6624 -1.2930 0
M  V30 21 Pd -1.4852 0.2681 5.2319 0
M  V30 22 Pb -0.8211 0.9952 5.4204 0
M  V30 23 Pb -2.1898 -0.4191 5.0643 0
M  V30 24 Pb -2.2116 0.9447 5.1283 0
M  V30 25 Pb -0.7845 -0.4479 5.2533 0
M  V30 26 Pd -3.2822 2.7465 -5.6074 0
M  V30 27 Pb -2.9510 3.5455 -5.1180 0
M  V30 28 Pb -3.6113 1.9323 -6.0804 0
M  V30 29 Pb -2.3884 2.6224 -6.0370 0
M  V30 30 Pb -4.1576 2.8006 -5.0942 0
M  V30 31 Pd -3.8151 -4.7508 -4.9548 0
M  V30 32 Pb -2.9103 -4.8348 -5.3704 0
M  V30 33 Pb -4.0270 -3.9956 -5.5709 0
M  V30 34 Pb -4.6843 -4.5821 -4.4554 0
M  V30 35 Pb -3.5960 -5.4861 -4.3236 0
M  V30 36 Pd 5.3010 -2.5482 2.8729 0
M  V30 37 Pb 4.4295 -2.7847 3.3036 0
M  V30 38 Pb 6.1524 -2.2404 2.4412 0
M  V30 39 Pb 5.5618 -2.1624 3.7557 0
M  V30 40 Pb 5.0225 -2.9349 1.9934 0
M  V30 41 Pd 7.1304 2.2764 1.2816 0
M  V30 42 Pb 6.7528 3.1938 1.4427 0
M  V30 43 Pb 6.5669 2.1810 0.4600 0
M  V30 44 Pb 7.4778 1.3409 1.1821 0
M  V30 45 Pb 7.7174 2.4106 2.0772 0
M  V30 46 Ag 3.7758 3.8847 5.8443 0
M  V30 47 Fe 1.7160 2.7073 5.6981 0
M  V30 48 Ag -0.3730 1.5800 5.5750 0
M  V30 49 Ag 1.9686 -2.6265 -5.1722 0
M  V30 50 Fe -0.0864 -3.7831 -5.4569 0
M  V30 51 Ag -2.2070 -4.8389 -5.6288 0
M  V30 52 Ag -0.2991 -1.0216 5.2174 0
M  V30 53 Fe 1.7398 -1.9755 4.4542 0
M  V30 54 Ag 3.7883 -2.8974 3.6775 0
M  V30 55 Ag -5.6636 2.7230 1.4440 0
M  V30 56 Fe -4.2735 2.1063 3.2672 0
M  V30 57 Ag -2.7961 1.3884 4.9813 0
M  V30 58 Ag -4.8575 3.9746 -0.5156 0
M  V30 59 Fe -3.5915 4.4421 -2.4466 0
M  V30 60 Ag -2.7971 4.0844 -4.6350 0
M  V30 61 Ag -5.3572 -4.6056 0.2471 0
M  V30 62 Fe -4.2517 -5.6923 -1.5251 0
M  V30 63 Ag -3.5049 -5.9360 -3.7441 0
M  V30 64 Ag 5.6741 2.3877 6.4977 0
M  V30 65 Fe 5.7199 0.1753 5.6512 0
M  V30 66 Ag 5.6846 -1.8527 4.4255 0
M  V30 67 Ag 2.1460 -0.1772 -5.4841 0
M  V30 68 Fe 0.2601 1.1812 -5.9732 0
M  V30 69 Ag -1.7071 2.4689 -6.3093 0
M  V30 70 Ag 3.3779 -2.4572 -3.1357 0
M  V30 71 Fe 4.1088 -2.8481 -0.9096 0
M  V30 72 Ag 4.8384 -3.2129 1.3213 0
M  V30 73 Ag 3.6038 0.0133 -3.5545 0
M  V30 74 Fe 4.8894 1.0255 -1.8319 0
M  V30 75 Ag 6.1575 2.1527 -0.1689 0
M  V30 76 Ag -3.8450 1.3045 -6.4116 0
M  V30 77 Fe -4.0420 -1.0551 -6.2744 0
M  V30 78 Ag -4.1749 -3.4080 -6.0083 0
M  V30 79 Ag -5.8006 -2.8339 1.8577 0
M  V30 80 Fe -4.2948 -1.8663 3.4163 0
M  V30 81 Ag -2.7683 -0.8780 4.9414 0
M  V30 82 Ba -6.5484 -3.5446 -1.5111 0
M  V30 83 Ga -5.8788 -3.9827 -2.7743 0
M  V30 84 Ba -5.3446 -4.4281 -4.0981 0
M  V30 85 Ba 7.1981 3.6206 5.2521 0
M  V30 86 Ga 7.7394 3.0915 3.9925 0
M  V30 87 Ba 8.1335 2.5603 2.6800 0
M  V30 88 Ba 5.4772 4.8954 4.2051 0
M  V30 89 Ga 5.9575 4.4410 2.8812 0
M  V30 90 Ba 6.4659 3.8713 1.6134 0
M  V30 91 Ba -6.1476 2.7047 -2.0505 0
M  V30 92 Ga -5.4163 2.7537 -3.3532 0
M  V30 93 Ba -4.8294 2.8125 -4.7267 0
M  V30 94 Ba -7.1929 -1.6500 0.0537 0
M  V30 95 Ga -7.0687 -0.1792 -0.0590 0
M  V30 96 Ba -7.0589 1.2968 -0.1733 0
M  V30 97 Ba 6.7714 -1.9970 2.0880 0
M  V30 98 Ga 7.2562 -0.6813 1.6163 0
M  V30 99 Ba 7.7389 0.6355 1.1457 0
M  V30 END ATOM
M  V30 BEGIN BOND
M  V30 1 1 1 2
M  V30 2 1 1 3
M  V30 3 1 1 4
M  V30 4 1 1 5
M  V30 5 1 6 7
M  V30 6 1 6 8
M  V30 7 1 6 9
M  V30 8 1 6 10
M  V30 9 1 11 12
M  V30 10 1 11 13
M  V30 11 1 11 14
M  V30 12 1 11 15
M  V30 13 1 16 17
M  V30 14 1 16 18
M  V30 15 1 16 19
M  V30 16 1 16 20
M  V30 17 1 21 22
M  V30 18 1 21 23
M  V30 19 1 21 24
M  V30 20 1 21 25
M  V30 21 1 26 27
M  V30 22 1 26 28
M  V30 23 1 26 29
M  V30 24 1 26 30
M  V30 25 1 31 32
M  V30 26 1 31 33
M  V30 27 1 31 34
M  V30 28 1 31 35
M  V30 29 1 36 37
M  V30 30 1 36 38
M  V30 31 1 36 39
M  V30 32 1 36 40
M  V30 33 1 41 42
M  V30 34 1 41 43
M  V30 35 1 41 44
M  V30 36 1 41 45
M  V30 37 1 46 47
M  V30 38 1 47 48
M  V30 39 1 49 50
M  V30 40 1 50 51
M  V30 41 1 52 53
M  V30 42 1 53 54
M  V30 43 1 55 56
M  V30 44 1 56 57
M  V30 45 1 58 59
M  V30 46 1 59 60
M  V30 47 1 61 62
M  V30 48 1 62 63
M  V30 49 1 64 65
M  V30 50 1 65 66
M  V30 51 1 67 68
M  V30 52 1 68 69
M  V30 53 1 70 71
M  V30 54 1 71 72
M  V30 55 1 73 74
M  V30 56 1 74 75
M  V30 57 1 76 77
M  V30 58 1 77 78
M  V30 59 1 79 80
M  V30 60 1 80 81
M  V30 61 1 82 83
M  V30 62 1 83 84
M  V30 63 1 85 86
M  V30 64 1 86 87
M  V30 65 1 88 89
M  V30 66 1 89 90
M  V30 67 1 91 92
M  V30 68 1 92 93
M  V30 69 1 94 95
M  V30 70 1 95 96
M  V30 71 1 97 98
M  V30 72 1 98 99
M  V30 73 1 2 49
M  V30 74 1 3 73
M  V30 75 1 4 67
M  V30 76 1 5 70
M  V30 77 1 7 46
M  V30 78 1 8 88
M  V30 79 1 9 64
M  V30 80 1 10 85
M  V30 81 1 12 61
M  V30 82 1 13 79
M  V30 83 1 14 94
M  V30 84 1 15 82
M  V30 85 1 17 96
M  V30 86 1 18 58
M  V30 87 1 19 55
M  V30 88 1 20 91
M  V30 89 1 22 48
M  V30 90 1 23 81
M  V30 91 1 24 57
M  V30 92 1 25 52
M  V30 93 1 27 60
M  V30 94 1 28 76
M  V30 95 1 29 69
M  V30 96 1 30 93
M  V30 97 1 32 51
M  V30 98 1 33 78
M  V30 99 1 34 84
M  V30 100 1 35 63
M  V30 101 1 37 54
M  V30 102 1 38 97
M  V30 103 1 39 66
M  V30 104 1 40 72
M  V30 105 1 42 90
M  V30 106 1 43 75
M  V30 107 1 44 99
M  V30 108 1 45 87
M  V30 END BOND
M  V30 END CTAB
M  END

$$$$
