
     RDKit          3D

  0  0  0  0  0  0  0  0  0  0999 V3000
M  V30 BEGIN CTAB
M  V30 COUNTS 99 108 0 0 0
M  V30 BEGIN ATOM
M  V30 1 Pd -2.6271 0.1865 -3.2926 0
M  V30 2 Pb -2.5953 -0.7990 -3.4698 0
M  V30 3 Pb -2.5319 0.0260 -2.3114 0
M  V30 4 Pb -2.6219 0.3627 -4.2739 0
M  V30 5 Pb -2.6288 1.1688 -3.1097 0
M  V30 6 Pd -3.7599 0.1394 6.7565 0
M  V30 7 Pb -2.8024 0.2728 7.0212 0
M  V30 8 Pb -3.5496 -0.7234 6.3013 0
M  V30 9 Pb -3.9926 1.0637 7.0434 0
M  V30 10 Pb -4.7101 0.0316 6.4665 0
M  V30 11 Pd 3.9262 -4.8374 0.7768 0
M  V30 12 Pb 3.0645 -5.1382 0.3258 0
M  V30 13 Pb 3.4397 -4.3924 1.5298 0
M  V30 14 Pb 4.7624 -4.3731 1.0463 0
M  V30 15 Pb 4.4580 -5.2860 0.0708 0
M  V30 16 Pd 5.8171 1.5948 -1.8565 0
M  V30 17 Pb 6.1417 0.7863 -1.3674 0
M  V30 18 Pb 5.8665 1.1327 -2.7684 0
M  V30 19 Pb 5.6581 2.0131 -0.9621 0
M  V30 20 Pb 5.5593 2.4406 -2.3062 0
M  V30 21 Pd 1.5467 1.5174 4.7499 0
M  V30 22 Pb 0.9372 1.2936 5.5173 0
M  V30 23 Pb 1.7494 0.5414 4.6558 0
M  V30 24 Pb 2.2337 1.7718 4.0642 0
M  V30 25 Pb 1.2730 2.4791 4.7685 0
M  V30 26 Pd 3.0222 0.4058 -6.9907 0
M  V30 27 Pb 3.8698 0.2468 -6.4417 0
M  V30 28 Pb 2.8002 -0.5674 -7.0883 0
M  V30 29 Pb 2.1354 0.5830 -7.4088 0
M  V30 30 Pb 3.1755 1.3836 -6.9232 0
M  V30 31 Pd 1.0269 -4.2006 -4.2973 0
M  V30 32 Pb 0.0813 -3.8790 -4.1881 0
M  V30 33 Pb 1.1141 -3.8180 -5.2181 0
M  V30 34 Pb 1.9192 -4.6008 -4.4570 0
M  V30 35 Pb 1.0176 -4.5932 -3.3522 0
M  V30 36 Pd -4.0363 5.1934 2.0954 0
M  V30 37 Pb -3.1758 5.5357 2.4688 0
M  V30 38 Pb -4.8402 4.7075 1.7488 0
M  V30 39 Pb -4.3703 5.1668 3.0355 0
M  V30 40 Pb -3.6761 5.1780 1.1646 0
M  V30 41 Pd -5.0086 -0.0444 2.1210 0
M  V30 42 Pb -4.5763 -0.8062 2.6112 0
M  V30 43 Pb -4.2314 -0.0517 1.4922 0
M  V30 44 Pb -5.4396 0.7493 1.6799 0
M  V30 45 Pb -5.7335 -0.0521 2.8056 0
M  V30 46 Ag 1.0399 3.1883 4.6940 0
M  V30 47 Fe -0.6748 4.5646 3.7977 0
M  V30 48 Ag -2.5272 5.6780 2.8148 0
M  V30 49 Ag 5.4938 2.2853 -0.2824 0
M  V30 50 Fe 4.1175 2.1315 1.6502 0
M  V30 51 Ag 2.7768 2.0322 3.6111 0
M  V30 52 Ag 4.7832 -5.5548 -0.5336 0
M  V30 53 Fe 4.1027 -5.4934 -2.7800 0
M  V30 54 Ag 2.5817 -4.9243 -4.4762 0
M  V30 55 Ag 5.3505 3.0005 -2.7400 0
M  V30 56 Fe 4.3059 3.0510 -4.8463 0
M  V30 57 Ag 3.3149 2.0873 -6.7487 0
M  V30 58 Ag 5.3539 -3.9244 1.0905 0
M  V30 59 Fe 6.0038 -1.8472 0.1503 0
M  V30 60 Ag 6.3881 0.2273 -0.9330 0
M  V30 61 Ag -4.2041 1.7764 7.0887 0
M  V30 62 Fe -4.4514 3.5901 5.5838 0
M  V30 63 Ag -4.5375 5.1030 3.7615 0
M  V30 64 Ag -2.5022 0.4934 -4.9988 0
M  V30 65 Fe -0.6850 0.6438 -6.5109 0
M  V30 66 Ag 1.4206 0.6843 -7.5950 0
M  V30 67 Ag -2.6164 1.8978 -2.9380 0
M  V30 68 Fe -3.0011 3.5634 -1.2917 0
M  V30 69 Ag -3.4358 5.1046 0.4599 0
M  V30 70 Ag 3.1324 -4.0626 2.1306 0
M  V30 71 Fe 2.4904 -2.1152 3.3319 0
M  V30 72 Ag 1.8302 -0.2013 4.5764 0
M  V30 73 Ba -2.0910 0.3839 7.2387 0
M  V30 74 Ga -0.7937 0.7545 6.6310 0
M  V30 75 Ba 0.5559 1.1173 6.1449 0
M  V30 76 Ba -2.5830 -1.5384 -3.6049 0
M  V30 77 Ga -1.5730 -2.5896 -3.8562 0
M  V30 78 Ba -0.6526 -3.7179 -4.1164 0
M  V30 79 Ba 5.9123 0.7683 -3.4489 0
M  V30 80 Ga 5.1499 0.4965 -4.7150 0
M  V30 81 Ba 4.5137 0.1392 -6.0287 0
M  V30 82 Ba -5.4091 -0.0261 6.2036 0
M  V30 83 Ga -5.8920 -0.0560 4.8139 0
M  V30 84 Ba -6.2127 -0.0753 3.3781 0
M  V30 85 Ba -3.4471 -1.3142 5.8532 0
M  V30 86 Ga -3.8216 -1.4055 4.4275 0
M  V30 87 Ba -4.2489 -1.3525 3.0143 0
M  V30 88 Ba 2.4178 -5.3256 -0.0463 0
M  V30 89 Ga 1.7558 -5.0843 -1.3719 0
M  V30 90 Ba 0.9895 -4.9193 -2.6520 0
M  V30 91 Ba -5.3898 4.2826 1.4608 0
M  V30 92 Ga -5.6024 2.8180 1.4234 0
M  V30 93 Ba -5.7971 1.3507 1.3951 0
M  V30 94 Ba -2.3850 -0.0695 -1.5834 0
M  V30 95 Ga -3.0648 -0.0750 -0.2752 0
M  V30 96 Ba -3.5948 -0.1096 1.1000 0
M  V30 97 Ba 2.5367 -1.2579 -7.2363 0
M  V30 98 Ga 1.9103 -2.4003 -6.5367 0
M  V30 99 Ba 1.2780 -3.5828 -5.9130 0
M  V30 END ATOM
M  V30 BEGIN BOND
M  V30 1 1 1 2
M  V30 2 1 1 3
M  V30 3 1 1 4
M  V30 4 1 1 5
M  V30 5 1 6 7
M  V30 6 1 6 8
M  V30 7 1 6 9
M  V30 8 1 6 10
M  V30 9 1 11 12
M  V30 10 1 11 13
M  V30 11 1 11 14
M  V30 12 1 11 15
M  V30 13 1 16 17
M  V30 14 1 16 18
M  V30 15 1 16 19
M  V30 16 1 16 20
M  V30 17 1 21 22
M  V30 18 1 21 23
M  V30 19 1 21 24
M  V30 20 1 21 25
M  V30 21 1 26 27
M  V30 22 1 26 28
M  V30 23 1 26 29
M  V30 24 1 26 30
M  V30 25 1 31 32
M  V30 26 1 31 33
M  V30 27 1 31 34
M  V30 28 1 31 35
M  V30 29 1 36 37
M  V30 30 1 36 38
M  V30 31 1 36 39
M  V30 32 1 36 40
M  V30 33 1 41 42
M  V30 34 1 41 43
M  V30 35 1 41 44
M  V30 36 1 41 45
M  V30 37 1 46 47
M  V30 38 1 47 48
M  V30 39 1 49 50
M  V30 40 1 50 51
M  V30 41 1 52 53
M  V30 42 1 53 54
M  V30 43 1 55 56
M  V30 44 1 56 57
M  V30 45 1 58 59
M  V30 46 1 59 60
M  V30 47 1 61 62
M  V30 48 1 62 63
M  V30 49 1 64 65
M  V30 50 1 65 66
M  V30 51 1 67 68
M  V30 52 1 68 69
M  V30 53 1 70 71
M  V30 54 1 71 72
M  V30 55 1 73 74
M  V30 56 1 74 75
M  V30 57 1 76 77
M  V30 58 1 77 78
M  V30 59 1 79 80
M  V30 60 1 80 81
M  V30 61 1 82 83
M  V30 62 1 83 84
M  V30 63 1 85 86
M  V30 64 1 86 87
M  V30 65 1 88 89
M  V30 66 1 89 90
M  V30 67 1 91 92
M  V30 68 1 92 93
M  V30 69 1 94 95
M  V30 70 1 95 96
M  V30 71 1 97 98
M  V30 72 1 98 99
M  V30 73 1 2 76
M  V30 74 1 3 94
M  V30 75 1 4 64
M  V30 76 1 5 67
M  V30 77 1 7 73
M  V30 78 1 8 85
M  V30 79 1 9 61
M  V30 80 1 10 82
M  V30 81 1 12 88
M  V30 82 1 13 70
M  V30 83 1 14 58
M  V30 84 1 15 52
M  V30 85 1 17 60
M  V30 86 1 18 79
M  V30 87 1 19 49
M  V30 88 1 20 55
M  V30 89 1 22 75
M  V30 90 1 23 72
M  V30 91 1 24 51
M  V30 92 1 25 46
M  V30 93 1 27 81
M  V30 94 1 28 97
M  V30 95 1 29 66
M  V30 96 1 30 57
M  V30 97 1 32 78
M  V30 98 1 33 99
M  V30 99 1 34 54
M  V30 100 1 35 90
M  V30 101 1 37 48
M  V30 102 1 38 91
M  V30 103 1 39 63
M  V30 104 1 40 69
M  V30 105 1 42 87
M  V30 106 1 43 96
M  V30 107 1 44 93
M  V30 108 1 45 84
M  V30 END BOND
M  V30 END CTAB
M  END

$$$$
