
     RDKit          3D

  0  0  0  0  0  0  0  0  0  0999 V3000
M  V30 BEGIN CTAB
M  V30 COUNTS 99 108 0 0 0
M  V30 BEGIN ATOM
M  V30 1 Pd 4.9323 2.8895 1.5428 0
M  V30 2 Pb 5.6790 2.2307 1.5536 0
M  V30 3 Pb 5.3487 3.4033 2.2911 0
M  V30 4 Pb 4.1662 3.5338 1.5638 0
M  V30 5 Pb 4.4969 2.2997 0.8560 0
M  V30 6 Pd 2.4289 3.7497 5.5968 0
M  V30 7 Pb 2.6398 3.0872 6.3171 0
M  V30 8 Pb 2.2342 4.3003 4.7859 0
M  V30 9 Pb 3.3888 4.0148 5.5142 0
M  V30 10 Pb 1.4746 3.4647 5.6468 0
M  V30 11 Pd 0.8887 0.4515 -4.9779 0
M  V30 12 Pb 0.6894 -0.3524 -5.5440 0
M  V30 13 Pb 1.0266 1.2401 -4.3705 0
M  V30 14 Pb 0.0176 0.8506 -5.2522 0
M  V30 15 Pb 1.7719 0.0447 -4.7407 0
M  V30 16 Pd -6.4863 0.0260 -3.9145 0
M  V30 17 Pb -6.7712 0.8522 -3.4233 0
M  V30 18 Pb -6.1554 -0.8060 -4.3660 0
M  V30 19 Pb -7.0747 -0.5044 -3.3082 0
M  V30 20 Pb -5.8560 0.5578 -4.4720 0
M  V30 21 Pd 4.9069 -3.9544 -0.2974 0
M  V30 22 Pb 4.1381 -4.4785 -0.6598 0
M  V30 23 Pb 4.7164 -4.2537 0.6370 0
M  V30 24 Pb 5.0145 -3.5301 -1.1945 0
M  V30 25 Pb 5.6413 -3.3799 0.0534 0
M  V30 26 Pd 1.0290 -0.9794 5.1986 0
M  V30 27 Pb 1.5796 -0.6302 5.9603 0
M  V30 28 Pb 0.4964 -1.2716 4.4050 0
M  V30 29 Pb 0.4038 -0.2133 5.3350 0
M  V30 30 Pb 1.6501 -1.7493 5.0421 0
M  V30 31 Pd -2.0377 -3.6874 -3.8772 0
M  V30 32 Pb -1.2106 -4.0964 -3.4892 0
M  V30 33 Pb -2.4558 -3.7784 -2.9747 0
M  V30 34 Pb -1.5575 -3.5052 -4.7371 0
M  V30 35 Pb -2.9046 -3.3837 -4.2894 0
M  V30 36 Pd 0.0122 1.0797 0.1293 0
M  V30 37 Pb -0.8452 1.5004 0.4368 0
M  V30 38 Pb 0.2033 1.8111 -0.5269 0
M  V30 39 Pb 0.9158 0.7374 -0.1226 0
M  V30 40 Pb -0.1807 0.2904 0.7174 0
M  V30 41 Pd -5.6916 0.4529 0.6925 0
M  V30 42 Pb -6.4490 -0.1219 0.3864 0
M  V30 43 Pb -6.1609 1.2400 0.2972 0
M  V30 44 Pb -5.2021 -0.3842 0.9188 0
M  V30 45 Pb -4.9180 1.0370 0.9462 0
M  V30 46 Ag -0.6403 1.1384 -5.4567 0
M  V30 47 Fe -2.9981 1.1017 -5.2199 0
M  V30 48 Ag -5.3331 0.9245 -4.8559 0
M  V30 49 Ag -2.6986 -3.7811 -2.2661 0
M  V30 50 Fe -3.7622 -2.5319 -0.5528 0
M  V30 51 Ag -4.8709 -1.0524 0.9329 0
M  V30 52 Ag 4.5429 -4.3717 1.3568 0
M  V30 53 Fe 3.3474 -3.4380 3.1852 0
M  V30 54 Ag 2.0913 -2.3336 4.8726 0
M  V30 55 Ag 3.5517 -4.8296 -0.9655 0
M  V30 56 Fe 1.4608 -4.6314 -2.0747 0
M  V30 57 Ag -0.6313 -4.4671 -3.1869 0
M  V30 58 Ag 2.4260 -0.2984 -4.6043 0
M  V30 59 Fe 3.7715 -1.7178 -3.2568 0
M  V30 60 Ag 5.0309 -3.1440 -1.8357 0
M  V30 61 Ag 6.1742 1.6740 1.5328 0
M  V30 62 Fe 6.3419 -0.6203 0.9681 0
M  V30 63 Ag 6.1372 -2.8878 0.3140 0
M  V30 64 Ba -1.4502 1.8438 0.7261 0
M  V30 65 Ga -2.9037 1.6320 0.8936 0
M  V30 66 Ba -4.3613 1.5144 1.1122 0
M  V30 67 Ba 0.7778 3.1975 5.6766 0
M  V30 68 Ga 0.3068 1.8087 5.5645 0
M  V30 69 Ba -0.0347 0.3838 5.4374 0
M  V30 70 Ba 5.6054 3.7582 2.8981 0
M  V30 71 Ga 4.9148 4.0205 4.1724 0
M  V30 72 Ba 4.0999 4.2115 5.3845 0
M  V30 73 Ba -7.4772 -0.8563 -2.7860 0
M  V30 74 Ga -7.3083 -0.7626 -1.3277 0
M  V30 75 Ba -6.9909 -0.5464 0.0925 0
M  V30 76 Ba 3.6066 4.0277 1.6485 0
M  V30 77 Ga 2.8293 4.3856 2.8506 0
M  V30 78 Ba 2.1324 4.6403 4.1259 0
M  V30 79 Ba 4.2233 1.7816 0.3796 0
M  V30 80 Ga 2.9191 1.1809 0.0270 0
M  V30 81 Ba 1.6174 0.5792 -0.3333 0
M  V30 82 Ba 2.7728 2.5253 6.7982 0
M  V30 83 Ga 2.3991 1.0976 6.7072 0
M  V30 84 Ba 1.9737 -0.3053 6.5135 0
M  V30 85 Ba 0.5132 -0.9635 -5.9476 0
M  V30 86 Ga -0.3226 -2.1533 -5.6778 0
M  V30 87 Ba -1.1698 -3.3215 -5.3545 0
M  V30 88 Ba 0.1100 -1.4756 3.7961 0
M  V30 89 Ga -0.1141 -0.8801 2.4634 0
M  V30 90 Ba -0.3628 -0.3191 1.1202 0
M  V30 91 Ba -6.9649 1.4457 -3.0034 0
M  V30 92 Ga -6.7737 1.6879 -1.5603 0
M  V30 93 Ba -6.5021 1.7652 -0.1122 0
M  V30 94 Ba -5.8943 -1.4195 -4.7157 0
M  V30 95 Ga -4.7036 -2.2967 -4.6335 0
M  V30 96 Ba -3.5582 -3.2356 -4.6406 0
M  V30 97 Ba 1.0606 1.8418 -3.9154 0
M  V30 98 Ga 0.7416 2.0922 -2.4915 0
M  V30 99 Ba 0.4137 2.2956 -1.0621 0
M  V30 END ATOM
M  V30 BEGIN BOND
M  V30 1 1 1 2
M  V30 2 1 1 3
M  V30 3 1 1 4
M  V30 4 1 1 5
M  V30 5 1 6 7
M  V30 6 1 6 8
M  V30 7 1 6 9
M  V30 8 1 6 10
M  V30 9 1 11 12
M  V30 10 1 11 13
M  V30 11 1 11 14
M  V30 12 1 11 15
M  V30 13 1 16 17
M  V30 14 1 16 18
M  V30 15 1 16 19
M  V30 16 1 16 20
M  V30 17 1 21 22
M  V30 18 1 21 23
M  V30 19 1 21 24
M  V30 20 1 21 25
M  V30 21 1 26 27
M  V30 22 1 26 28
M  V30 23 1 26 29
M  V30 24 1 26 30
M  V30 25 1 31 32
M  V30 26 1 31 33
M  V30 27 1 31 34
M  V30 28 1 31 35
M  V30 29 1 36 37
M  V30 30 1 36 38
M  V30 31 1 36 39
M  V30 32 1 36 40
M  V30 33 1 41 42
M  V30 34 1 41 43
M  V30 35 1 41 44
M  V30 36 1 41 45
M  V30 37 1 46 47
M  V30 38 1 47 48
M  V30 39 1 49 50
M  V30 40 1 50 51
M  V30 41 1 52 53
M  V30 42 1 53 54
M  V30 43 1 55 56
M  V30 44 1 56 57
M  V30 45 1 58 59
M  V30 46 1 59 60
M  V30 47 1 61 62
M  V30 48 1 62 63
M  V30 49 1 64 65
M  V30 50 1 65 66
M  V30 51 1 67 68
M  V30 52 1 68 69
M  V30 53 1 70 71
M  V30 54 1 71 72
M  V30 55 1 73 74
M  V30 56 1 74 75
M  V30 57 1 76 77
M  V30 58 1 77 78
M  V30 59 1 79 80
M  V30 60 1 80 81
M  V30 61 1 82 83
M  V30 62 1 83 84
M  V30 63 1 85 86
M  V30 64 1 86 87
M  V30 65 1 88 89
M  V30 66 1 89 90
M  V30 67 1 91 92
M  V30 68 1 92 93
M  V30 69 1 94 95
M  V30 70 1 95 96
M  V30 71 1 97 98
M  V30 72 1 98 99
M  V30 73 1 2 61
M  V30 74 1 3 70
M  V30 75 1 4 76
M  V30 76 1 5 79
M  V30 77 1 7 82
M  V30 78 1 8 78
M  V30 79 1 9 72
M  V30 80 1 10 67
M  V30 81 1 12 85
M  V30 82 1 13 97
M  V30 83 1 14 46
M  V30 84 1 15 58
M  V30 85 1 17 91
M  V30 86 1 18 94
M  V30 87 1 19 73
M  V30 88 1 20 48
M  V30 89 1 22 55
M  V30 90 1 23 52
M  V30 91 1 24 60
M  V30 92 1 25 63
M  V30 93 1 27 84
M  V30 94 1 28 88
M  V30 95 1 29 69
M  V30 96 1 30 54
M  V30 97 1 32 57
M  V30 98 1 33 49
M  V30 99 1 34 87
M  V30 100 1 35 96
M  V30 101 1 37 64
M  V30 102 1 38 99
M  V30 103 1 39 81
M  V30 104 1 40 90
M  V30 105 1 42 75
M  V30 106 1 43 93
M  V30 107 1 44 51
M  V30 108 1 45 66
M  V30 END BOND
M  V30 END CTAB
M  END

$$$$
