
     RDKit          3D

  0  0  0  0  0  0  0  0  0  0999 V3000
M  V30 BEGIN CTAB
M  V30 COUNTS 99 108 0 0 0
M  V30 BEGIN ATOM
M  V30 1 Pd -0.9052 3.5430 1.1767 0
M  V30 2 Pb -1.4742 4.3056 1.4841 0
M  V30 3 Pb -0.4543 2.7146 0.8439 0
M  V30 4 Pb -1.0932 3.0473 2.0237 0
M  V30 5 Pb -0.6756 4.0440 0.3384 0
M  V30 6 Pd 6.5669 -1.2006 1.4349 0
M  V30 7 Pb 6.7089 -1.4691 0.4797 0
M  V30 8 Pb 6.4402 -0.9565 2.3976 0
M  V30 9 Pb 6.9894 -0.3121 1.2578 0
M  V30 10 Pb 6.0050 -2.0102 1.6004 0
M  V30 11 Pd -3.6682 -1.1716 -4.3885 0
M  V30 12 Pb -3.6400 -0.1710 -4.3323 0
M  V30 13 Pb -2.7876 -1.1860 -4.8574 0
M  V30 14 Pb -3.6941 -2.1727 -4.3894 0
M  V30 15 Pb -4.5333 -1.1227 -3.8953 0
M  V30 16 Pd -2.2651 -5.0121 -0.7797 0
M  V30 17 Pb -2.6497 -4.9929 -1.7054 0
M  V30 18 Pb -3.1847 -4.9809 -0.3783 0
M  V30 19 Pb -1.3367 -5.0664 -1.1559 0
M  V30 20 Pb -1.8884 -5.0273 0.1458 0
M  V30 21 Pd 4.0231 -1.6429 -3.7208 0
M  V30 22 Pb 4.8694 -1.7912 -3.2035 0
M  V30 23 Pb 3.2037 -1.5154 -4.2772 0
M  V30 24 Pb 3.6507 -2.5215 -3.4181 0
M  V30 25 Pb 4.3325 -0.7319 -3.9954 0
M  V30 26 Pd -4.0109 -2.6681 3.5184 0
M  V30 27 Pb -4.5382 -3.2832 2.9311 0
M  V30 28 Pb -4.7736 -2.0297 3.6257 0
M  V30 29 Pb -3.4563 -1.9893 3.9932 0
M  V30 30 Pb -3.2211 -3.2695 3.4046 0
M  V30 31 Pd -5.8465 3.5428 0.5223 0
M  V30 32 Pb -5.3263 4.2651 0.9828 0
M  V30 33 Pb -6.2035 3.1785 1.3795 0
M  V30 34 Pb -6.3053 2.7861 0.0614 0
M  V30 35 Pb -5.4207 3.7568 -0.3568 0
M  V30 36 Pd 3.7075 5.0147 -0.9530 0
M  V30 37 Pb 3.9969 4.7325 -1.8657 0
M  V30 38 Pb 3.3930 5.1362 -0.0149 0
M  V30 39 Pb 4.6093 4.7352 -0.6207 0
M  V30 40 Pb 2.7779 5.2069 -1.2711 0
M  V30 41 Pd 2.3541 -0.2988 3.2590 0
M  V30 42 Pb 3.0694 -0.3180 3.9512 0
M  V30 43 Pb 1.7572 -0.2308 2.4602 0
M  V30 44 Pb 2.2070 0.6730 3.4336 0
M  V30 45 Pb 2.5825 -1.2481 3.0352 0
M  V30 46 Ag 4.5035 -0.0235 -4.1748 0
M  V30 47 Fe 4.4247 2.2397 -3.4612 0
M  V30 48 Ag 4.2255 4.3995 -2.4956 0
M  V30 49 Ag -0.6324 -5.1236 -1.4169 0
M  V30 50 Fe 1.3496 -4.1561 -2.3053 0
M  V30 51 Ag 3.3148 -3.1550 -3.1936 0
M  V30 52 Ag -5.1502 -0.9890 -3.4967 0
M  V30 53 Fe -6.0181 0.5244 -1.8911 0
M  V30 54 Ag -6.5780 2.1926 -0.3020 0
M  V30 55 Ag -3.6589 0.5737 -4.2256 0
M  V30 56 Fe -4.3245 2.2910 -2.7228 0
M  V30 57 Ag -5.0920 3.7740 -1.0312 0
M  V30 58 Ag 7.2007 0.3934 1.1170 0
M  V30 59 Fe 6.3574 2.4875 0.3782 0
M  V30 60 Ag 5.2645 4.4535 -0.3855 0
M  V30 61 Ag -1.2049 2.6366 2.6404 0
M  V30 62 Fe -2.0970 0.6418 3.5648 0
M  V30 63 Ag -3.0699 -1.4079 4.2584 0
M  V30 64 Ag 3.1353 5.0864 0.6838 0
M  V30 65 Fe 2.5795 3.3925 2.2467 0
M  V30 66 Ag 2.1549 1.4171 3.4872 0
M  V30 67 Ag -5.2750 -1.4791 3.7192 0
M  V30 68 Fe -5.9725 0.6575 2.9541 0
M  V30 69 Ag -6.4335 2.7617 1.9563 0
M  V30 70 Ag -2.1167 -1.1816 -5.1877 0
M  V30 71 Fe 0.2421 -1.3081 -4.9629 0
M  V30 72 Ag 2.5980 -1.4372 -4.7102 0
M  V30 73 Ba 6.8490 -1.6845 -0.2273 0
M  V30 74 Ga 6.1431 -1.7804 -1.5226 0
M  V30 75 Ba 5.5277 -1.9150 -2.8599 0
M  V30 76 Ba -1.9682 4.8304 1.6925 0
M  V30 77 Ga -3.4356 4.8582 1.5275 0
M  V30 78 Ba -4.8949 4.7862 1.3117 0
M  V30 79 Ba -3.8615 -4.9728 -0.0461 0
M  V30 80 Ga -4.3978 -4.3614 1.1890 0
M  V30 81 Ba -4.8840 -3.7269 2.4333 0
M  V30 82 Ba 5.4958 -2.5392 1.7508 0
M  V30 83 Ga 4.1430 -2.3272 2.3022 0
M  V30 84 Ba 2.8322 -1.9343 2.8561 0
M  V30 85 Ba 6.3086 -0.8036 3.1211 0
M  V30 86 Ga 5.0426 -0.5556 3.8305 0
M  V30 87 Ba 3.6901 -0.3270 4.3639 0
M  V30 88 Ba -1.6303 -5.0289 0.8492 0
M  V30 89 Ga -2.1063 -4.3856 2.0868 0
M  V30 90 Ba -2.6308 -3.7166 3.2907 0
M  V30 91 Ba -3.7069 -2.9238 -4.3739 0
M  V30 92 Ga -3.3212 -3.9507 -3.3836 0
M  V30 93 Ba -2.9386 -4.9854 -2.4003 0
M  V30 94 Ba -0.4926 4.4338 -0.2797 0
M  V30 95 Ga 0.7772 4.8800 -0.8915 0
M  V30 96 Ba 2.0635 5.3112 -1.4790 0
M  V30 97 Ba -0.1976 2.0468 0.6163 0
M  V30 98 Ga 0.5926 0.9565 1.2203 0
M  V30 99 Ba 1.3824 -0.1379 1.8172 0
M  V30 END ATOM
M  V30 BEGIN BOND
M  V30 1 1 1 2
M  V30 2 1 1 3
M  V30 3 1 1 4
M  V30 4 1 1 5
M  V30 5 1 6 7
M  V30 6 1 6 8
M  V30 7 1 6 9
M  V30 8 1 6 10
M  V30 9 1 11 12
M  V30 10 1 11 13
M  V30 11 1 11 14
M  V30 12 1 11 15
M  V30 13 1 16 17
M  V30 14 1 16 18
M  V30 15 1 16 19
M  V30 16 1 16 20
M  V30 17 1 21 22
M  V30 18 1 21 23
M  V30 19 1 21 24
M  V30 20 1 21 25
M  V30 21 1 26 27
M  V30 22 1 26 28
M  V30 23 1 26 29
M  V30 24 1 26 30
M  V30 25 1 31 32
M  V30 26 1 31 33
M  V30 27 1 31 34
M  V30 28 1 31 35
M  V30 29 1 36 37
M  V30 30 1 36 38
M  V30 31 1 36 39
M  V30 32 1 36 40
M  V30 33 1 41 42
M  V30 34 1 41 43
M  V30 35 1 41 44
M  V30 36 1 41 45
M  V30 37 1 46 47
M  V30 38 1 47 48
M  V30 39 1 49 50
M  V30 40 1 50 51
M  V30 41 1 52 53
M  V30 42 1 53 54
M  V30 43 1 55 56
M  V30 44 1 56 57
M  V30 45 1 58 59
M  V30 46 1 59 60
M  V30 47 1 61 62
M  V30 48 1 62 63
M  V30 49 1 64 65
M  V30 50 1 65 66
M  V30 51 1 67 68
M  V30 52 1 68 69
M  V30 53 1 70 71
M  V30 54 1 71 72
M  V30 55 1 73 74
M  V30 56 1 74 75
M  V30 57 1 76 77
M  V30 58 1 77 78
M  V30 59 1 79 80
M  V30 60 1 80 81
M  V30 61 1 82 83
M  V30 62 1 83 84
M  V30 63 1 85 86
M  V30 64 1 86 87
M  V30 65 1 88 89
M  V30 66 1 89 90
M  V30 67 1 91 92
M  V30 68 1 92 93
M  V30 69 1 94 95
M  V30 70 1 95 96
M  V30 71 1 97 98
M  V30 72 1 98 99
M  V30 73 1 2 76
M  V30 74 1 3 97
M  V30 75 1 4 61
M  V30 76 1 5 94
M  V30 77 1 7 73
M  V30 78 1 8 85
M  V30 79 1 9 58
M  V30 80 1 10 82
M  V30 81 1 12 55
M  V30 82 1 13 70
M  V30 83 1 14 91
M  V30 84 1 15 52
M  V30 85 1 17 93
M  V30 86 1 18 79
M  V30 87 1 19 49
M  V30 88 1 20 88
M  V30 89 1 22 75
M  V30 90 1 23 72
M  V30 91 1 24 51
M  V30 92 1 25 46
M  V30 93 1 27 81
M  V30 94 1 28 67
M  V30 95 1 29 63
M  V30 96 1 30 90
M  V30 97 1 32 78
M  V30 98 1 33 69
M  V30 99 1 34 54
M  V30 100 1 35 57
M  V30 101 1 37 48
M  V30 102 1 38 64
M  V30 103 1 39 60
M  V30 104 1 40 96
M  V30 105 1 42 87
M  V30 106 1 43 99
M  V30 107 1 44 66
M  V30 108 1 45 84
M  V30 END BOND
M  V30 END CTAB
M  END

$$$$
