
     RDKit          3D

  0  0  0  0  0  0  0  0  0  0999 V3000
M  V30 BEGIN CTAB
M  V30 COUNTS 99 108 0 0 0
M  V30 BEGIN ATOM
M  V30 1 Pd -2.8447 2.0278 -4.5551 0
M  V30 2 Pb -3.6239 1.9442 -3.9347 0
M  V30 3 Pb -2.0438 2.0547 -5.1505 0
M  V30 4 Pb -3.3646 1.6401 -5.3190 0
M  V30 5 Pb -2.3013 2.3734 -3.7900 0
M  V30 6 Pd -1.4001 -1.9413 -6.9476 0
M  V30 7 Pb -1.9123 -2.7933 -6.8439 0
M  V30 8 Pb -2.2136 -1.4616 -7.2746 0
M  V30 9 Pb -0.8978 -1.0804 -7.0120 0
M  V30 10 Pb -0.6306 -2.3764 -6.4831 0
M  V30 11 Pd 2.1744 -4.0421 4.4489 0
M  V30 12 Pb 1.7959 -3.7412 5.3205 0
M  V30 13 Pb 2.4934 -4.1938 3.5136 0
M  V30 14 Pb 3.0307 -3.5690 4.6495 0
M  V30 15 Pb 1.2668 -4.4024 4.2376 0
M  V30 16 Pd 4.7655 3.0264 4.3798 0
M  V30 17 Pb 4.5412 3.9810 4.2048 0
M  V30 18 Pb 4.0197 2.9949 5.0468 0
M  V30 19 Pb 5.4637 3.0850 3.6606 0
M  V30 20 Pb 4.9960 2.0691 4.5587 0
M  V30 21 Pd -4.4604 -1.6638 1.6594 0
M  V30 22 Pb -4.3004 -0.9537 2.3514 0
M  V30 23 Pb -4.6922 -2.3683 0.9873 0
M  V30 24 Pb -3.9825 -2.3653 2.1900 0
M  V30 25 Pb -4.8893 -0.9802 1.0694 0
M  V30 26 Pd -2.1326 -4.0700 -2.5895 0
M  V30 27 Pb -2.4533 -4.4896 -3.4374 0
M  V30 28 Pb -1.8497 -3.5834 -1.7637 0
M  V30 29 Pb -1.2350 -3.9548 -3.0193 0
M  V30 30 Pb -3.0315 -4.1812 -2.1710 0
M  V30 31 Pd -0.9411 1.9767 4.8541 0
M  V30 32 Pb -1.8435 1.6482 4.5611 0
M  V30 33 Pb -0.9130 2.6071 4.0742 0
M  V30 34 Pb -0.9186 1.2895 5.5779 0
M  V30 35 Pb -0.0743 2.3187 5.2319 0
M  V30 36 Pd 1.1977 0.0432 -1.3314 0
M  V30 37 Pb 1.9333 0.5327 -1.7958 0
M  V30 38 Pb 1.7651 -0.7674 -1.1817 0
M  V30 39 Pb 0.6263 0.8604 -1.4318 0
M  V30 40 Pb 0.4767 -0.4482 -0.8467 0
M  V30 41 Pd 3.7501 4.5753 -0.0627 0
M  V30 42 Pb 4.7126 4.3758 0.1192 0
M  V30 43 Pb 3.7554 5.2024 0.7111 0
M  V30 44 Pb 2.7552 4.6618 -0.0731 0
M  V30 45 Pb 3.7590 3.9441 -0.8391 0
M  V30 46 Ag 3.6341 -3.1446 4.7781 0
M  V30 47 Fe 4.4635 -0.9195 4.7578 0
M  V30 48 Ag 5.1621 1.3494 4.6934 0
M  V30 49 Ag -0.8763 3.0296 3.4515 0
M  V30 50 Fe 0.4721 3.9131 1.7043 0
M  V30 51 Ag 2.0208 4.6861 0.0752 0
M  V30 52 Ag 1.4397 -3.4046 5.8831 0
M  V30 53 Fe 0.2534 -1.3793 6.2139 0
M  V30 54 Ag -0.8130 0.7327 6.0656 0
M  V30 55 Ag 0.5490 -4.5832 4.1200 0
M  V30 56 Fe -1.5516 -3.8048 3.3296 0
M  V30 57 Ag -3.6034 -2.9260 2.5160 0
M  V30 58 Ag -4.1640 1.8511 -3.4234 0
M  V30 59 Fe -4.7608 0.7302 -1.4171 0
M  V30 60 Ag -5.1690 -0.4830 0.5829 0
M  V30 61 Ag 2.7082 -4.1871 2.7950 0
M  V30 62 Fe 2.5124 -2.8916 0.8134 0
M  V30 63 Ag 2.1293 -1.3961 -0.9922 0
M  V30 64 Ba 2.4667 0.9349 -2.1330 0
M  V30 65 Ga 3.1377 2.2003 -1.7837 0
M  V30 66 Ba 3.7972 3.4669 -1.4174 0
M  V30 67 Ba -0.1106 -2.6960 -6.0492 0
M  V30 68 Ga -0.2829 -3.3022 -4.7151 0
M  V30 69 Ba -0.5859 -3.8788 -3.3908 0
M  V30 70 Ba -1.4502 2.0060 -5.6033 0
M  V30 71 Ga -0.9494 0.8381 -6.3467 0
M  V30 72 Ba -0.5671 -0.4090 -7.0295 0
M  V30 73 Ba 5.9475 3.1708 3.0884 0
M  V30 74 Ga 5.7414 3.6656 1.7098 0
M  V30 75 Ba 5.3923 4.1753 0.3662 0
M  V30 76 Ba -3.7014 1.3203 -5.9106 0
M  V30 77 Ga -3.3177 0.1424 -6.7140 0
M  V30 78 Ba -2.8203 -1.0494 -7.4294 0
M  V30 79 Ba -4.8987 -2.8976 0.4964 0
M  V30 80 Ga -4.2994 -3.5724 -0.6692 0
M  V30 81 Ba -3.6961 -4.2446 -1.8341 0
M  V30 82 Ba -1.8998 2.6159 -3.2047 0
M  V30 83 Ga -0.8366 2.0409 -2.3567 0
M  V30 84 Ba 0.2271 1.4953 -1.4900 0
M  V30 85 Ba -2.2735 -3.4362 -6.7106 0
M  V30 86 Ga -2.5111 -4.1417 -5.4390 0
M  V30 87 Ba -2.6803 -4.7431 -4.1045 0
M  V30 88 Ba -1.6999 -3.1880 -1.1446 0
M  V30 89 Ga -0.8596 -2.0248 -0.8087 0
M  V30 90 Ba -0.0197 -0.8623 -0.4697 0
M  V30 91 Ba -4.2715 -0.3990 2.8616 0
M  V30 92 Ga -3.3350 0.4806 3.5957 0
M  V30 93 Ba -2.5505 1.4358 4.4093 0
M  V30 94 Ba 4.3725 4.6848 4.0257 0
M  V30 95 Ga 4.0585 5.2407 2.7046 0
M  V30 96 Ba 3.7674 5.6315 1.3206 0
M  V30 97 Ba 3.4495 3.0168 5.5355 0
M  V30 98 Ga 1.9919 2.7620 5.5172 0
M  V30 99 Ba 0.5325 2.5431 5.6224 0
M  V30 END ATOM
M  V30 BEGIN BOND
M  V30 1 1 1 2
M  V30 2 1 1 3
M  V30 3 1 1 4
M  V30 4 1 1 5
M  V30 5 1 6 7
M  V30 6 1 6 8
M  V30 7 1 6 9
M  V30 8 1 6 10
M  V30 9 1 11 12
M  V30 10 1 11 13
M  V30 11 1 11 14
M  V30 12 1 11 15
M  V30 13 1 16 17
M  V30 14 1 16 18
M  V30 15 1 16 19
M  V30 16 1 16 20
M  V30 17 1 21 22
M  V30 18 1 21 23
M  V30 19 1 21 24
M  V30 20 1 21 25
M  V30 21 1 26 27
M  V30 22 1 26 28
M  V30 23 1 26 29
M  V30 24 1 26 30
M  V30 25 1 31 32
M  V30 26 1 31 33
M  V30 27 1 31 34
M  V30 28 1 31 35
M  V30 29 1 36 37
M  V30 30 1 36 38
M  V30 31 1 36 39
M  V30 32 1 36 40
M  V30 33 1 41 42
M  V30 34 1 41 43
M  V30 35 1 41 44
M  V30 36 1 41 45
M  V30 37 1 46 47
M  V30 38 1 47 48
M  V30 39 1 49 50
M  V30 40 1 50 51
M  V30 41 1 52 53
M  V30 42 1 53 54
M  V30 43 1 55 56
M  V30 44 1 56 57
M  V30 45 1 58 59
M  V30 46 1 59 60
M  V30 47 1 61 62
M  V30 48 1 62 63
M  V30 49 1 64 65
M  V30 50 1 65 66
M  V30 51 1 67 68
M  V30 52 1 68 69
M  V30 53 1 70 71
M  V30 54 1 71 72
M  V30 55 1 73 74
M  V30 56 1 74 75
M  V30 57 1 76 77
M  V30 58 1 77 78
M  V30 59 1 79 80
M  V30 60 1 80 81
M  V30 61 1 82 83
M  V30 62 1 83 84
M  V30 63 1 85 86
M  V30 64 1 86 87
M  V30 65 1 88 89
M  V30 66 1 89 90
M  V30 67 1 91 92
M  V30 68 1 92 93
M  V30 69 1 94 95
M  V30 70 1 95 96
M  V30 71 1 97 98
M  V30 72 1 98 99
M  V30 73 1 2 58
M  V30 74 1 3 70
M  V30 75 1 4 76
M  V30 76 1 5 82
M  V30 77 1 7 85
M  V30 78 1 8 78
M  V30 79 1 9 72
M  V30 80 1 10 67
M  V30 81 1 12 52
M  V30 82 1 13 61
M  V30 83 1 14 46
M  V30 84 1 15 55
M  V30 85 1 17 94
M  V30 86 1 18 97
M  V30 87 1 19 73
M  V30 88 1 20 48
M  V30 89 1 22 91
M  V30 90 1 23 79
M  V30 91 1 24 57
M  V30 92 1 25 60
M  V30 93 1 27 87
M  V30 94 1 28 88
M  V30 95 1 29 69
M  V30 96 1 30 81
M  V30 97 1 32 93
M  V30 98 1 33 49
M  V30 99 1 34 54
M  V30 100 1 35 99
M  V30 101 1 37 64
M  V30 102 1 38 63
M  V30 103 1 39 84
M  V30 104 1 40 90
M  V30 105 1 42 75
M  V30 106 1 43 96
M  V30 107 1 44 51
M  V30 108 1 45 66
M  V30 END BOND
M  V30 END CTAB
M  END

$$$$
