
     RDKit          3D

  0  0  0  0  0  0  0  0  0  0999 V3000
M  V30 BEGIN CTAB
M  V30 COUNTS 99 108 0 0 0
M  V30 BEGIN ATOM
M  V30 1 Pd 3.3133 -2.3374 0.1382 0
M  V30 2 Pb 3.7688 -2.8601 0.8568 0
M  V30 3 Pb 3.2817 -3.1316 -0.4732 0
M  V30 4 Pb 3.3661 -1.5732 0.7841 0
M  V30 5 Pb 2.7478 -1.8386 -0.5233 0
M  V30 6 Pd -5.3603 -3.8515 -1.0788 0
M  V30 7 Pb -6.0352 -3.5519 -0.4159 0
M  V30 8 Pb -4.6292 -4.0381 -1.7298 0
M  V30 9 Pb -5.6627 -3.1216 -1.6844 0
M  V30 10 Pb -4.9696 -4.4463 -0.3688 0
M  V30 11 Pd 0.8595 3.6615 -4.0166 0
M  V30 12 Pb 0.5938 2.7144 -3.8468 0
M  V30 13 Pb 1.1811 4.6065 -4.1013 0
M  V30 14 Pb 1.7930 3.3480 -3.8696 0
M  V30 15 Pb -0.0898 3.9385 -4.1814 0
M  V30 16 Pd -3.3300 -1.1627 2.0134 0
M  V30 17 Pb -3.2008 -2.1544 1.8644 0
M  V30 18 Pb -3.4932 -0.1767 2.1106 0
M  V30 19 Pb -4.3182 -1.2956 1.9591 0
M  V30 20 Pb -2.3567 -1.0352 2.1980 0
M  V30 21 Pd 5.4988 2.8781 1.4592 0
M  V30 22 Pb 5.0984 2.0404 1.8317 0
M  V30 23 Pb 5.5345 2.4950 0.5429 0
M  V30 24 Pb 5.3976 3.3222 2.3449 0
M  V30 25 Pb 5.7312 3.7732 1.0455 0
M  V30 26 Pd -0.4566 -5.5803 -0.6091 0
M  V30 27 Pb -0.8707 -5.0939 -1.3707 0
M  V30 28 Pb -0.0937 -6.1999 0.0859 0
M  V30 29 Pb -1.2570 -5.3671 -0.0357 0
M  V30 30 Pb 0.3981 -5.6670 -1.1169 0
M  V30 31 Pd -3.7482 3.4452 -1.2276 0
M  V30 32 Pb -4.2357 2.6555 -1.6004 0
M  V30 33 Pb -3.5459 3.7497 -2.1588 0
M  V30 34 Pb -3.8891 3.1346 -0.2819 0
M  V30 35 Pb -3.3144 4.2821 -0.8966 0
M  V30 36 Pd 0.6433 -4.4584 3.6416 0
M  V30 37 Pb 0.5098 -3.4695 3.5774 0
M  V30 38 Pb 0.7948 -5.4354 3.5763 0
M  V30 39 Pb -0.3276 -4.6573 3.4667 0
M  V30 40 Pb 1.6340 -4.3281 3.7006 0
M  V30 41 Pd 2.6539 7.3366 -0.3784 0
M  V30 42 Pb 3.6202 7.0318 -0.3791 0
M  V30 43 Pb 2.7203 7.4378 0.6105 0
M  V30 44 Pb 2.5772 7.2517 -1.3767 0
M  V30 45 Pb 1.6738 7.5093 -0.3231 0
M  V30 46 Ag 5.2108 3.7918 2.8866 0
M  V30 47 Fe 3.9935 5.7927 2.6339 0
M  V30 48 Ag 2.8495 7.3968 1.3408 0
M  V30 49 Ag 2.2658 -1.5305 -1.0137 0
M  V30 50 Fe 1.3672 0.2236 -2.3423 0
M  V30 51 Ag 0.4920 1.9958 -3.6623 0
M  V30 52 Ag -3.0050 4.9361 -0.7017 0
M  V30 53 Fe -1.0754 6.2955 -0.4580 0
M  V30 54 Ag 0.9310 7.5454 -0.2530 0
M  V30 55 Ag 2.4626 3.0543 -3.7230 0
M  V30 56 Fe 4.0767 2.6040 -2.0498 0
M  V30 57 Ag 5.4956 2.3124 -0.1767 0
M  V30 58 Ag -5.8119 -2.4949 -2.0600 0
M  V30 59 Fe -5.2636 -0.1863 -2.0535 0
M  V30 60 Ag -4.6195 2.0938 -1.9171 0
M  V30 61 Ag -4.6796 -4.7919 0.2381 0
M  V30 62 Fe -2.8875 -4.9147 1.8024 0
M  V30 63 Ag -1.0170 -4.9057 3.2760 0
M  V30 64 Ba 3.4485 -1.0871 1.3529 0
M  V30 65 Ga 4.1015 0.1968 1.6814 0
M  V30 66 Ba 4.7108 1.4678 2.1246 0
M  V30 67 Ba 1.4595 5.3046 -4.1321 0
M  V30 68 Ga 1.9743 6.2561 -3.1222 0
M  V30 69 Ba 2.4936 7.2197 -2.1262 0
M  V30 70 Ba 3.2423 -3.7261 -0.9334 0
M  V30 71 Ga 2.1865 -4.7160 -1.2228 0
M  V30 72 Ba 1.0715 -5.6574 -1.4431 0
M  V30 73 Ba 0.1635 -6.6901 0.5916 0
M  V30 74 Ga 0.5461 -6.5370 1.9981 0
M  V30 75 Ba 0.8706 -6.1412 3.3701 0
M  V30 76 Ba 4.0293 -3.2040 1.4689 0
M  V30 77 Ga 3.2641 -3.7589 2.6017 0
M  V30 78 Ba 2.3827 -4.2771 3.6654 0
M  V30 79 Ba -6.4422 -3.2286 0.1122 0
M  V30 80 Ga -5.8530 -2.3058 1.0860 0
M  V30 81 Ba -5.0551 -1.4278 1.9476 0
M  V30 82 Ba -3.6577 0.5560 2.1799 0
M  V30 83 Ga -3.8002 1.7267 1.2837 0
M  V30 84 Ba -3.9601 2.9361 0.4434 0
M  V30 85 Ba 5.8691 4.4425 0.7045 0
M  V30 86 Ga 5.0799 5.6024 0.1931 0
M  V30 87 Ba 4.3429 6.7883 -0.3364 0
M  V30 88 Ba -4.0667 -4.0801 -2.2198 0
M  V30 89 Ga -2.6452 -4.4366 -2.1193 0
M  V30 90 Ba -1.2342 -4.8110 -1.9555 0
M  V30 91 Ba -1.6447 -0.9379 2.4095 0
M  V30 92 Ga -0.5974 -1.8329 2.9357 0
M  V30 93 Ba 0.4471 -2.7308 3.4625 0
M  V30 94 Ba -0.8037 4.1313 -4.3205 0
M  V30 95 Ga -2.0833 4.0611 -3.5859 0
M  V30 96 Ba -3.3594 3.9882 -2.8455 0
M  V30 97 Ba -3.1816 -2.9075 1.7585 0
M  V30 98 Ga -2.4535 -3.9892 1.0420 0
M  V30 99 Ba -1.8371 -5.1931 0.4198 0
M  V30 END ATOM
M  V30 BEGIN BOND
M  V30 1 1 1 2
M  V30 2 1 1 3
M  V30 3 1 1 4
M  V30 4 1 1 5
M  V30 5 1 6 7
M  V30 6 1 6 8
M  V30 7 1 6 9
M  V30 8 1 6 10
M  V30 9 1 11 12
M  V30 10 1 11 13
M  V30 11 1 11 14
M  V30 12 1 11 15
M  V30 13 1 16 17
M  V30 14 1 16 18
M  V30 15 1 16 19
M  V30 16 1 16 20
M  V30 17 1 21 22
M  V30 18 1 21 23
M  V30 19 1 21 24
M  V30 20 1 21 25
M  V30 21 1 26 27
M  V30 22 1 26 28
M  V30 23 1 26 29
M  V30 24 1 26 30
M  V30 25 1 31 32
M  V30 26 1 31 33
M  V30 27 1 31 34
M  V30 28 1 31 35
M  V30 29 1 36 37
M  V30 30 1 36 38
M  V30 31 1 36 39
M  V30 32 1 36 40
M  V30 33 1 41 42
M  V30 34 1 41 43
M  V30 35 1 41 44
M  V30 36 1 41 45
M  V30 37 1 46 47
M  V30 38 1 47 48
M  V30 39 1 49 50
M  V30 40 1 50 51
M  V30 41 1 52 53
M  V30 42 1 53 54
M  V30 43 1 55 56
M  V30 44 1 56 57
M  V30 45 1 58 59
M  V30 46 1 59 60
M  V30 47 1 61 62
M  V30 48 1 62 63
M  V30 49 1 64 65
M  V30 50 1 65 66
M  V30 51 1 67 68
M  V30 52 1 68 69
M  V30 53 1 70 71
M  V30 54 1 71 72
M  V30 55 1 73 74
M  V30 56 1 74 75
M  V30 57 1 76 77
M  V30 58 1 77 78
M  V30 59 1 79 80
M  V30 60 1 80 81
M  V30 61 1 82 83
M  V30 62 1 83 84
M  V30 63 1 85 86
M  V30 64 1 86 87
M  V30 65 1 88 89
M  V30 66 1 89 90
M  V30 67 1 91 92
M  V30 68 1 92 93
M  V30 69 1 94 95
M  V30 70 1 95 96
M  V30 71 1 97 98
M  V30 72 1 98 99
M  V30 73 1 2 76
M  V30 74 1 3 70
M  V30 75 1 4 64
M  V30 76 1 5 49
M  V30 77 1 7 79
M  V30 78 1 8 88
M  V30 79 1 9 58
M  V30 80 1 10 61
M  V30 81 1 12 51
M  V30 82 1 13 67
M  V30 83 1 14 55
M  V30 84 1 15 94
M  V30 85 1 17 97
M  V30 86 1 18 82
M  V30 87 1 19 81
M  V30 88 1 20 91
M  V30 89 1 22 66
M  V30 90 1 23 57
M  V30 91 1 24 46
M  V30 92 1 25 85
M  V30 93 1 27 90
M  V30 94 1 28 73
M  V30 95 1 29 99
M  V30 96 1 30 72
M  V30 97 1 32 60
M  V30 98 1 33 96
M  V30 99 1 34 84
M  V30 100 1 35 52
M  V30 101 1 37 93
M  V30 102 1 38 75
M  V30 103 1 39 63
M  V30 104 1 40 78
M  V30 105 1 42 87
M  V30 106 1 43 48
M  V30 107 1 44 69
M  V30 108 1 45 54
M  V30 END BOND
M  V30 END CTAB
M  END

$$$$
