
     RDKit          3D

  0  0  0  0  0  0  0  0  0  0999 V3000
M  V30 BEGIN CTAB
M  V30 COUNTS 99 108 0 0 0
M  V30 BEGIN ATOM
M  V30 1 Pd -4.1965 2.6210 0.0650 0
M  V30 2 Pb -4.6944 2.0840 -0.6188 0
M  V30 3 Pb -3.7700 3.2263 0.7418 0
M  V30 4 Pb -4.6960 2.1701 0.8048 0
M  V30 5 Pb -3.6590 3.0156 -0.6779 0
M  V30 6 Pd 6.0062 4.1306 3.7440 0
M  V30 7 Pb 6.5188 3.3642 3.3682 0
M  V30 8 Pb 5.5646 3.5692 4.4389 0
M  V30 9 Pb 6.3467 4.6830 2.9905 0
M  V30 10 Pb 5.3568 4.8702 3.9562 0
M  V30 11 Pd 0.4091 -4.1296 -3.4541 0
M  V30 12 Pb -0.1520 -4.8896 -3.1601 0
M  V30 13 Pb 0.9890 -3.3790 -3.7809 0
M  V30 14 Pb 1.1752 -4.7600 -3.3471 0
M  V30 15 Pb -0.4150 -3.5322 -3.5378 0
M  V30 16 Pd 1.1817 -6.3774 0.8389 0
M  V30 17 Pb 1.5541 -6.6869 -0.0365 0
M  V30 18 Pb 0.8072 -6.0053 1.6866 0
M  V30 19 Pb 2.0144 -5.8379 0.9259 0
M  V30 20 Pb 0.2989 -6.8371 0.7200 0
M  V30 21 Pd 4.4851 -0.1358 -2.1470 0
M  V30 22 Pb 5.1471 0.2050 -1.4776 0
M  V30 23 Pb 3.8604 -0.5221 -2.8310 0
M  V30 24 Pb 4.4721 -0.9686 -1.5953 0
M  V30 25 Pb 4.5037 0.7110 -2.6883 0
M  V30 26 Pd -5.4100 -4.1839 2.6111 0
M  V30 27 Pb -4.5654 -4.2014 3.1431 0
M  V30 28 Pb -6.2213 -4.1354 2.0295 0
M  V30 29 Pb -5.6392 -3.2693 2.9401 0
M  V30 30 Pb -5.1020 -5.0457 2.2017 0
M  V30 31 Pd -5.3652 -2.5997 -2.0830 0
M  V30 32 Pb -5.5682 -1.6262 -2.1892 0
M  V30 33 Pb -6.2107 -2.7527 -1.5739 0
M  V30 34 Pb -4.4803 -2.4740 -2.5781 0
M  V30 35 Pb -5.1936 -3.5688 -1.9797 0
M  V30 36 Pd 2.5618 5.2412 -2.2864 0
M  V30 37 Pb 3.0471 4.5654 -2.8488 0
M  V30 38 Pb 2.0820 5.9022 -1.7014 0
M  V30 39 Pb 3.4410 5.5518 -1.9358 0
M  V30 40 Pb 1.6699 4.9464 -2.6207 0
M  V30 41 Pd 0.4251 5.4018 2.8173 0
M  V30 42 Pb 0.4402 4.7618 3.5819 0
M  V30 43 Pb -0.5363 5.1791 2.6350 0
M  V30 44 Pb 0.4596 6.0191 2.0267 0
M  V30 45 Pb 1.3508 5.6997 3.1037 0
M  V30 46 Ag 6.8175 2.8235 2.9490 0
M  V30 47 Fe 6.3092 1.5505 1.0103 0
M  V30 48 Ag 5.6475 0.3714 -0.9418 0
M  V30 49 Ag 2.6210 -5.4037 0.9093 0
M  V30 50 Fe 3.5866 -3.4827 -0.0939 0
M  V30 51 Ag 4.5041 -1.5562 -1.1313 0
M  V30 52 Ag 0.4525 -5.7183 2.2799 0
M  V30 53 Fe -1.6657 -4.9488 3.0218 0
M  V30 54 Ag -3.8914 -4.2556 3.4630 0
M  V30 55 Ag 5.0622 3.2403 4.8764 0
M  V30 56 Fe 2.7117 3.4693 4.8604 0
M  V30 57 Ag 0.6210 4.2863 4.1252 0
M  V30 58 Ag -0.6369 -5.3977 -2.9379 0
M  V30 59 Fe -2.9031 -5.3108 -2.3251 0
M  V30 60 Ag -4.9703 -4.2686 -1.9273 0
M  V30 61 Ag -0.4090 -7.0916 0.6892 0
M  V30 62 Fe -2.6462 -6.4984 1.2384 0
M  V30 63 Ag -4.7687 -5.6454 1.8914 0
M  V30 64 Ag 6.4894 5.0674 2.3703 0
M  V30 65 Fe 5.4437 5.5302 0.2974 0
M  V30 66 Ag 4.0912 5.7557 -1.6329 0
M  V30 67 Ag -5.0326 1.7951 1.3603 0
M  V30 68 Fe -5.4705 -0.3337 2.3160 0
M  V30 69 Ag -5.7896 -2.5529 3.0970 0
M  V30 70 Ag -3.2428 3.2561 -1.2514 0
M  V30 71 Fe -1.1527 4.0133 -2.0801 0
M  V30 72 Ag 0.9723 4.7663 -2.8187 0
M  V30 73 Ba -5.0979 1.7456 -1.1555 0
M  V30 74 Ga -5.3840 0.3985 -1.6871 0
M  V30 75 Ba -5.7350 -0.9021 -2.2909 0
M  V30 76 Ba 4.5040 1.3181 -3.1376 0
M  V30 77 Ga 3.9565 2.6941 -3.1619 0
M  V30 78 Ba 3.4468 4.0809 -3.2667 0
M  V30 79 Ba -1.0127 -3.0568 -3.6396 0
M  V30 80 Ga -2.4298 -2.7754 -3.2396 0
M  V30 81 Ba -3.8349 -2.3261 -2.9729 0
M  V30 82 Ba 4.8483 5.4251 4.0443 0
M  V30 83 Ga 3.4172 5.6476 3.6984 0
M  V30 84 Ba 1.9977 5.9801 3.3972 0
M  V30 85 Ba 1.6608 -5.3134 -3.2124 0
M  V30 86 Ga 1.8242 -6.1090 -1.9813 0
M  V30 87 Ba 1.8909 -6.8247 -0.6933 0
M  V30 88 Ba 1.7026 6.3956 -1.2746 0
M  V30 89 Ga 1.1121 6.4222 0.0830 0
M  V30 90 Ba 0.5102 6.4828 1.4345 0
M  V30 91 Ba -3.5405 3.7086 1.2724 0
M  V30 92 Ga -2.3408 4.3388 1.8640 0
M  V30 93 Ba -1.2805 5.0719 2.5882 0
M  V30 94 Ba -6.8076 -4.0286 1.5748 0
M  V30 95 Ga -6.8708 -3.4873 0.2055 0
M  V30 96 Ba -6.8069 -2.9376 -1.1604 0
M  V30 97 Ba 1.3905 -2.8112 -4.0699 0
M  V30 98 Ga 2.4104 -1.8192 -3.6656 0
M  V30 99 Ba 3.4257 -0.7796 -3.3900 0
M  V30 END ATOM
M  V30 BEGIN BOND
M  V30 1 1 1 2
M  V30 2 1 1 3
M  V30 3 1 1 4
M  V30 4 1 1 5
M  V30 5 1 6 7
M  V30 6 1 6 8
M  V30 7 1 6 9
M  V30 8 1 6 10
M  V30 9 1 11 12
M  V30 10 1 11 13
M  V30 11 1 11 14
M  V30 12 1 11 15
M  V30 13 1 16 17
M  V30 14 1 16 18
M  V30 15 1 16 19
M  V30 16 1 16 20
M  V30 17 1 21 22
M  V30 18 1 21 23
M  V30 19 1 21 24
M  V30 20 1 21 25
M  V30 21 1 26 27
M  V30 22 1 26 28
M  V30 23 1 26 29
M  V30 24 1 26 30
M  V30 25 1 31 32
M  V30 26 1 31 33
M  V30 27 1 31 34
M  V30 28 1 31 35
M  V30 29 1 36 37
M  V30 30 1 36 38
M  V30 31 1 36 39
M  V30 32 1 36 40
M  V30 33 1 41 42
M  V30 34 1 41 43
M  V30 35 1 41 44
M  V30 36 1 41 45
M  V30 37 1 46 47
M  V30 38 1 47 48
M  V30 39 1 49 50
M  V30 40 1 50 51
M  V30 41 1 52 53
M  V30 42 1 53 54
M  V30 43 1 55 56
M  V30 44 1 56 57
M  V30 45 1 58 59
M  V30 46 1 59 60
M  V30 47 1 61 62
M  V30 48 1 62 63
M  V30 49 1 64 65
M  V30 50 1 65 66
M  V30 51 1 67 68
M  V30 52 1 68 69
M  V30 53 1 70 71
M  V30 54 1 71 72
M  V30 55 1 73 74
M  V30 56 1 74 75
M  V30 57 1 76 77
M  V30 58 1 77 78
M  V30 59 1 79 80
M  V30 60 1 80 81
M  V30 61 1 82 83
M  V30 62 1 83 84
M  V30 63 1 85 86
M  V30 64 1 86 87
M  V30 65 1 88 89
M  V30 66 1 89 90
M  V30 67 1 91 92
M  V30 68 1 92 93
M  V30 69 1 94 95
M  V30 70 1 95 96
M  V30 71 1 97 98
M  V30 72 1 98 99
M  V30 73 1 2 73
M  V30 74 1 3 91
M  V30 75 1 4 67
M  V30 76 1 5 70
M  V30 77 1 7 46
M  V30 78 1 8 55
M  V30 79 1 9 64
M  V30 80 1 10 82
M  V30 81 1 12 58
M  V30 82 1 13 97
M  V30 83 1 14 85
M  V30 84 1 15 79
M  V30 85 1 17 87
M  V30 86 1 18 52
M  V30 87 1 19 49
M  V30 88 1 20 61
M  V30 89 1 22 48
M  V30 90 1 23 99
M  V30 91 1 24 51
M  V30 92 1 25 76
M  V30 93 1 27 54
M  V30 94 1 28 94
M  V30 95 1 29 69
M  V30 96 1 30 63
M  V30 97 1 32 75
M  V30 98 1 33 96
M  V30 99 1 34 81
M  V30 100 1 35 60
M  V30 101 1 37 78
M  V30 102 1 38 88
M  V30 103 1 39 66
M  V30 104 1 40 72
M  V30 105 1 42 57
M  V30 106 1 43 93
M  V30 107 1 44 90
M  V30 108 1 45 84
M  V30 END BOND
M  V30 END CTAB
M  END

$$$$
