
     RDKit          3D

  0  0  0  0  0  0  0  0  0  0999 V3000
M  V30 BEGIN CTAB
M  V30 COUNTS 99 108 0 0 0
M  V30 BEGIN ATOM
M  V30 1 Pd 3.4697 -0.0187 -1.0970 0
M  V30 2 Pb 3.2057 -0.9304 -0.7891 0
M  V30 3 Pb 3.9988 -0.7909 -1.4382 0
M  V30 4 Pb 4.1148 0.0953 -0.3443 0
M  V30 5 Pb 3.2683 0.9588 -1.0849 0
M  V30 6 Pd 0.6608 2.6511 6.9094 0
M  V30 7 Pb 1.4764 3.0573 6.4929 0
M  V30 8 Pb 0.2608 3.5586 7.0024 0
M  V30 9 Pb -0.1815 2.2555 7.3116 0
M  V30 10 Pb 0.9741 1.7169 6.7456 0
M  V30 11 Pd -3.3741 -4.4432 -4.4393 0
M  V30 12 Pb -3.8164 -4.3149 -3.5496 0
M  V30 13 Pb -2.8442 -4.5514 -5.2938 0
M  V30 14 Pb -3.4839 -3.4854 -4.6981 0
M  V30 15 Pb -3.1662 -5.3896 -4.2073 0
M  V30 16 Pd 2.0003 -4.5617 -6.1781 0
M  V30 17 Pb 2.1790 -3.6191 -6.4801 0
M  V30 18 Pb 1.8192 -5.4822 -5.8411 0
M  V30 19 Pb 1.0803 -4.5692 -6.5945 0
M  V30 20 Pb 2.8571 -4.5314 -5.6733 0
M  V30 21 Pd -4.6052 1.1843 5.5865 0
M  V30 22 Pb -4.6009 2.1769 5.6757 0
M  V30 23 Pb -4.6237 0.1852 5.5150 0
M  V30 24 Pb -4.9691 1.2702 4.6647 0
M  V30 25 Pb -4.0591 1.1374 6.4322 0
M  V30 26 Pd -1.1833 3.0836 -0.7480 0
M  V30 27 Pb -0.8150 3.5601 -1.5391 0
M  V30 28 Pb -2.0056 2.8114 -0.2487 0
M  V30 29 Pb -0.1877 3.1144 -0.8779 0
M  V30 30 Pb -1.0041 3.8589 -0.1437 0
M  V30 31 Pd 1.2457 1.2580 -5.1880 0
M  V30 32 Pb 2.0845 1.5551 -4.7284 0
M  V30 33 Pb 0.3419 0.9668 -5.5004 0
M  V30 34 Pb 1.6804 0.4749 -5.6512 0
M  V30 35 Pb 0.8554 2.1065 -4.8385 0
M  V30 36 Pd 3.2029 3.7476 1.8422 0
M  V30 37 Pb 2.4143 4.3580 1.7338 0
M  V30 38 Pb 3.9491 3.0971 1.9586 0
M  V30 39 Pb 3.2900 3.5922 0.8488 0
M  V30 40 Pb 3.2055 3.9005 2.8341 0
M  V30 41 Pd -1.9854 -3.1145 3.0029 0
M  V30 42 Pb -1.2264 -3.3220 2.3872 0
M  V30 43 Pb -2.6522 -3.3325 2.2857 0
M  V30 44 Pb -1.3049 -2.8541 3.6902 0
M  V30 45 Pb -2.7338 -2.9237 3.6410 0
M  V30 46 Ag 2.6226 1.8442 -4.2875 0
M  V30 47 Fe 3.0528 2.6583 -2.0901 0
M  V30 48 Ag 3.4600 3.4400 0.1243 0
M  V30 49 Ag -4.0981 -4.2365 -2.8568 0
M  V30 50 Fe -3.6538 -3.8543 -0.5520 0
M  V30 51 Ag -3.1543 -3.4692 1.7410 0
M  V30 52 Ag 1.0980 0.9926 6.5996 0
M  V30 53 Fe 0.2328 -0.8741 5.4119 0
M  V30 54 Ag -0.7656 -2.6324 4.1646 0
M  V30 55 Ag 4.3494 -1.3676 -1.7551 0
M  V30 56 Fe 4.0925 -2.9930 -3.4573 0
M  V30 57 Ag 3.4408 -4.4281 -5.2237 0
M  V30 58 Ag -3.4562 -2.7846 -4.9604 0
M  V30 59 Fe -1.9901 -0.9564 -5.3425 0
M  V30 60 Ag -0.3639 0.7494 -5.6320 0
M  V30 61 Ag -5.1043 1.3711 3.9390 0
M  V30 62 Fe -3.9515 1.9832 1.9581 0
M  V30 63 Ag -2.6519 2.6101 0.0746 0
M  V30 64 Ag -2.8250 -6.0421 -4.1170 0
M  V30 65 Fe -0.6035 -6.5860 -4.6913 0
M  V30 66 Ag 1.5385 -6.1084 -5.5556 0
M  V30 67 Ag 2.9260 -1.5843 -0.5581 0
M  V30 68 Fe 1.1790 -2.6001 0.6857 0
M  V30 69 Ag -0.6261 -3.4626 1.9620 0
M  V30 70 Ag -0.2112 4.1297 6.9892 0
M  V30 71 Fe -2.4992 4.0339 6.4328 0
M  V30 72 Ag -4.4648 2.8971 5.7983 0
M  V30 73 Ba 4.5842 0.2335 0.2209 0
M  V30 74 Ga 4.5990 1.3689 1.1540 0
M  V30 75 Ba 4.4693 2.5636 2.0001 0
M  V30 76 Ba -2.4449 -4.6028 -5.9399 0
M  V30 77 Ga -1.0217 -4.5997 -6.3781 0
M  V30 78 Ba 0.3786 -4.6031 -6.8851 0
M  V30 79 Ba 2.0744 3.4051 6.1987 0
M  V30 80 Ga 2.6411 3.6820 4.8613 0
M  V30 81 Ba 3.2886 4.0146 3.5745 0
M  V30 82 Ba -0.7999 1.9510 7.6397 0
M  V30 83 Ga -2.1960 1.5517 7.3062 0
M  V30 84 Ba -3.6001 1.1326 7.0365 0
M  V30 85 Ba -0.7832 4.4256 0.2944 0
M  V30 86 Ga 0.4969 4.6408 0.9993 0
M  V30 87 Ba 1.8008 4.7912 1.6771 0
M  V30 88 Ba 3.0819 1.6836 -1.0912 0
M  V30 89 Ga 1.8044 2.4227 -1.0173 0
M  V30 90 Ba 0.5571 3.2119 -0.9502 0
M  V30 91 Ba -4.6615 -0.5647 5.4775 0
M  V30 92 Ga -3.9579 -1.6634 4.7844 0
M  V30 93 Ba -3.2984 -2.8086 4.1238 0
M  V30 94 Ba -0.5789 3.8872 -2.1646 0
M  V30 95 Ga 0.0260 3.3419 -3.3875 0
M  V30 96 Ba 0.6281 2.7793 -4.6039 0
M  V30 97 Ba 2.3698 -2.9223 -6.7015 0
M  V30 98 Ga 2.1405 -1.5042 -6.3305 0
M  V30 99 Ba 2.0161 -0.0460 -6.0882 0
M  V30 END ATOM
M  V30 BEGIN BOND
M  V30 1 1 1 2
M  V30 2 1 1 3
M  V30 3 1 1 4
M  V30 4 1 1 5
M  V30 5 1 6 7
M  V30 6 1 6 8
M  V30 7 1 6 9
M  V30 8 1 6 10
M  V30 9 1 11 12
M  V30 10 1 11 13
M  V30 11 1 11 14
M  V30 12 1 11 15
M  V30 13 1 16 17
M  V30 14 1 16 18
M  V30 15 1 16 19
M  V30 16 1 16 20
M  V30 17 1 21 22
M  V30 18 1 21 23
M  V30 19 1 21 24
M  V30 20 1 21 25
M  V30 21 1 26 27
M  V30 22 1 26 28
M  V30 23 1 26 29
M  V30 24 1 26 30
M  V30 25 1 31 32
M  V30 26 1 31 33
M  V30 27 1 31 34
M  V30 28 1 31 35
M  V30 29 1 36 37
M  V30 30 1 36 38
M  V30 31 1 36 39
M  V30 32 1 36 40
M  V30 33 1 41 42
M  V30 34 1 41 43
M  V30 35 1 41 44
M  V30 36 1 41 45
M  V30 37 1 46 47
M  V30 38 1 47 48
M  V30 39 1 49 50
M  V30 40 1 50 51
M  V30 41 1 52 53
M  V30 42 1 53 54
M  V30 43 1 55 56
M  V30 44 1 56 57
M  V30 45 1 58 59
M  V30 46 1 59 60
M  V30 47 1 61 62
M  V30 48 1 62 63
M  V30 49 1 64 65
M  V30 50 1 65 66
M  V30 51 1 67 68
M  V30 52 1 68 69
M  V30 53 1 70 71
M  V30 54 1 71 72
M  V30 55 1 73 74
M  V30 56 1 74 75
M  V30 57 1 76 77
M  V30 58 1 77 78
M  V30 59 1 79 80
M  V30 60 1 80 81
M  V30 61 1 82 83
M  V30 62 1 83 84
M  V30 63 1 85 86
M  V30 64 1 86 87
M  V30 65 1 88 89
M  V30 66 1 89 90
M  V30 67 1 91 92
M  V30 68 1 92 93
M  V30 69 1 94 95
M  V30 70 1 95 96
M  V30 71 1 97 98
M  V30 72 1 98 99
M  V30 73 1 2 67
M  V30 74 1 3 55
M  V30 75 1 4 73
M  V30 76 1 5 88
M  V30 77 1 7 79
M  V30 78 1 8 70
M  V30 79 1 9 82
M  V30 80 1 10 52
M  V30 81 1 12 49
M  V30 82 1 13 76
M  V30 83 1 14 58
M  V30 84 1 15 64
M  V30 85 1 17 97
M  V30 86 1 18 66
M  V30 87 1 19 78
M  V30 88 1 20 57
M  V30 89 1 22 72
M  V30 90 1 23 91
M  V30 91 1 24 61
M  V30 92 1 25 84
M  V30 93 1 27 94
M  V30 94 1 28 63
M  V30 95 1 29 90
M  V30 96 1 30 85
M  V30 97 1 32 46
M  V30 98 1 33 60
M  V30 99 1 34 99
M  V30 100 1 35 96
M  V30 101 1 37 87
M  V30 102 1 38 75
M  V30 103 1 39 48
M  V30 104 1 40 81
M  V30 105 1 42 69
M  V30 106 1 43 51
M  V30 107 1 44 54
M  V30 108 1 45 93
M  V30 END BOND
M  V30 END CTAB
M  END

$$$$
