
     RDKit          3D

  0  0  0  0  0  0  0  0  0  0999 V3000
M  V30 BEGIN CTAB
M  V30 COUNTS 99 108 0 0 0
M  V30 BEGIN ATOM
M  V30 1 Pd 1.7321 -3.5030 -1.1330 0
M  V30 2 Pb 1.6897 -2.8737 -1.9115 0
M  V30 3 Pb 1.7068 -4.1465 -0.3722 0
M  V30 4 Pb 1.9426 -2.7807 -0.4737 0
M  V30 5 Pb 1.4577 -4.2526 -1.7352 0
M  V30 6 Pd -4.7387 -2.3331 2.1314 0
M  V30 7 Pb -3.8290 -1.9613 1.9288 0
M  V30 8 Pb -5.6461 -2.6841 2.3505 0
M  V30 9 Pb -5.0497 -2.2392 1.1881 0
M  V30 10 Pb -4.3947 -2.7057 3.0050 0
M  V30 11 Pd 0.2057 6.0297 -3.4236 0
M  V30 12 Pb 1.1219 6.3549 -3.6289 0
M  V30 13 Pb -0.7166 5.7064 -3.2049 0
M  V30 14 Pb 0.1076 6.7837 -2.7749 0
M  V30 15 Pb 0.3746 5.2206 -4.0166 0
M  V30 16 Pd 2.2932 6.8113 3.3921 0
M  V30 17 Pb 1.8933 7.4742 2.7609 0
M  V30 18 Pb 2.7077 6.0692 3.9387 0
M  V30 19 Pb 1.3959 6.3738 3.4469 0
M  V30 20 Pb 3.2054 7.2012 3.2906 0
M  V30 21 Pd -2.2258 2.0356 -0.3790 0
M  V30 22 Pb -1.9834 1.2441 0.1858 0
M  V30 23 Pb -2.4818 2.8109 -0.9595 0
M  V30 24 Pb -2.1697 2.6350 0.4200 0
M  V30 25 Pb -2.2411 1.4244 -1.1673 0
M  V30 26 Pd 5.6160 2.2192 2.6681 0
M  V30 27 Pb 5.1272 2.7368 3.3874 0
M  V30 28 Pb 6.0433 1.7273 1.9105 0
M  V30 29 Pb 4.8822 1.5429 2.6413 0
M  V30 30 Pb 6.2926 2.9508 2.6426 0
M  V30 31 Pd 3.5740 1.2796 -4.1072 0
M  V30 32 Pb 2.9746 0.4805 -4.0418 0
M  V30 33 Pb 4.3058 0.8286 -3.5991 0
M  V30 34 Pb 2.8127 1.8111 -4.5224 0
M  V30 35 Pb 4.1653 2.0726 -4.2018 0
M  V30 36 Pd -3.0530 -5.2308 -1.9501 0
M  V30 37 Pb -2.8048 -4.3681 -2.3857 0
M  V30 38 Pb -3.2943 -6.1108 -1.5205 0
M  V30 39 Pb -3.8975 -4.7521 -1.6904 0
M  V30 40 Pb -2.1870 -5.6285 -2.2562 0
M  V30 41 Pd -3.3322 -7.2882 2.9390 0
M  V30 42 Pb -4.3050 -7.4440 3.0950 0
M  V30 43 Pb -2.3563 -7.1363 2.7959 0
M  V30 44 Pb -3.3827 -7.8283 2.0999 0
M  V30 45 Pb -3.3440 -6.5447 3.6247 0
M  V30 46 Ag -2.2251 0.9234 -1.7218 0
M  V30 47 Fe -2.4263 -1.3710 -2.2893 0
M  V30 48 Ag -2.6595 -3.6983 -2.6849 0
M  V30 49 Ag 0.7260 6.0371 3.4352 0
M  V30 50 Fe -0.7274 4.5636 2.2701 0
M  V30 51 Ag -2.0960 3.0764 1.0224 0
M  V30 52 Ag -6.2409 -3.0924 2.5225 0
M  V30 53 Fe -6.2841 -5.3980 2.9799 0
M  V30 54 Ag -5.0381 -7.3806 3.1851 0
M  V30 55 Ag 1.8399 6.4572 -3.7755 0
M  V30 56 Fe 3.5778 4.9035 -4.1012 0
M  V30 57 Ag 4.4848 2.7372 -4.2616 0
M  V30 58 Ag 3.9355 7.3134 3.2040 0
M  V30 59 Fe 5.6876 5.7617 2.8930 0
M  V30 60 Ag 6.6317 3.6121 2.6449 0
M  V30 61 Ag 0.1051 7.3107 -2.2422 0
M  V30 62 Fe 0.7797 7.7489 -0.0088 0
M  V30 63 Ag 1.5629 7.8835 2.2280 0
M  V30 64 Ag 2.0578 -2.3021 0.0931 0
M  V30 65 Fe 3.2191 -0.6203 1.3023 0
M  V30 66 Ag 4.3147 1.0596 2.5740 0
M  V30 67 Ag 1.6258 -4.6361 0.1856 0
M  V30 68 Fe 0.0559 -5.8552 1.4794 0
M  V30 69 Ag -1.6274 -7.0074 2.6893 0
M  V30 70 Ag 6.2683 1.3445 1.3071 0
M  V30 71 Fe 5.6905 0.8616 -0.9439 0
M  V30 72 Ag 4.8525 0.5883 -3.1477 0
M  V30 73 Ba -3.1342 -1.6897 1.8237 0
M  V30 74 Ga -2.4914 -0.5171 1.1927 0
M  V30 75 Ba -1.7921 0.6329 0.5802 0
M  V30 76 Ba 1.5933 -2.4613 -2.5328 0
M  V30 77 Ga 2.0997 -1.2623 -3.2303 0
M  V30 78 Ba 2.4946 -0.0968 -4.0467 0
M  V30 79 Ba 3.0265 5.5059 4.3386 0
M  V30 80 Ga 3.8958 4.3215 4.0924 0
M  V30 81 Ba 4.7614 3.1194 3.9353 0
M  V30 82 Ba 0.5039 4.6172 -4.4723 0
M  V30 83 Ga 1.4009 3.4261 -4.5970 0
M  V30 84 Ba 2.2321 2.2046 -4.8330 0
M  V30 85 Ba -4.1403 -3.0800 3.6181 0
M  V30 86 Ga -3.7516 -4.5013 3.8609 0
M  V30 87 Ba -3.3693 -5.9290 4.0745 0
M  V30 88 Ba -5.3128 -2.3377 0.4928 0
M  V30 89 Ga -4.9034 -3.2987 -0.5566 0
M  V30 90 Ba -4.4755 -4.2756 -1.5837 0
M  V30 91 Ba 1.2105 -4.8332 -2.1407 0
M  V30 92 Ga -0.1440 -5.3823 -2.3450 0
M  V30 93 Ba -1.5247 -5.8782 -2.5068 0
M  V30 94 Ba -3.4205 -6.8031 -1.2371 0
M  V30 95 Ga -3.4416 -7.4736 0.0847 0
M  V30 96 Ba -3.4632 -8.1261 1.4155 0
M  V30 97 Ba -1.4137 5.4808 -3.0382 0
M  V30 98 Ga -2.0322 4.4227 -2.2137 0
M  V30 99 Ba -2.6934 3.3807 -1.4019 0
M  V30 END ATOM
M  V30 BEGIN BOND
M  V30 1 1 1 2
M  V30 2 1 1 3
M  V30 3 1 1 4
M  V30 4 1 1 5
M  V30 5 1 6 7
M  V30 6 1 6 8
M  V30 7 1 6 9
M  V30 8 1 6 10
M  V30 9 1 11 12
M  V30 10 1 11 13
M  V30 11 1 11 14
M  V30 12 1 11 15
M  V30 13 1 16 17
M  V30 14 1 16 18
M  V30 15 1 16 19
M  V30 16 1 16 20
M  V30 17 1 21 22
M  V30 18 1 21 23
M  V30 19 1 21 24
M  V30 20 1 21 25
M  V30 21 1 26 27
M  V30 22 1 26 28
M  V30 23 1 26 29
M  V30 24 1 26 30
M  V30 25 1 31 32
M  V30 26 1 31 33
M  V30 27 1 31 34
M  V30 28 1 31 35
M  V30 29 1 36 37
M  V30 30 1 36 38
M  V30 31 1 36 39
M  V30 32 1 36 40
M  V30 33 1 41 42
M  V30 34 1 41 43
M  V30 35 1 41 44
M  V30 36 1 41 45
M  V30 37 1 46 47
M  V30 38 1 47 48
M  V30 39 1 49 50
M  V30 40 1 50 51
M  V30 41 1 52 53
M  V30 42 1 53 54
M  V30 43 1 55 56
M  V30 44 1 56 57
M  V30 45 1 58 59
M  V30 46 1 59 60
M  V30 47 1 61 62
M  V30 48 1 62 63
M  V30 49 1 64 65
M  V30 50 1 65 66
M  V30 51 1 67 68
M  V30 52 1 68 69
M  V30 53 1 70 71
M  V30 54 1 71 72
M  V30 55 1 73 74
M  V30 56 1 74 75
M  V30 57 1 76 77
M  V30 58 1 77 78
M  V30 59 1 79 80
M  V30 60 1 80 81
M  V30 61 1 82 83
M  V30 62 1 83 84
M  V30 63 1 85 86
M  V30 64 1 86 87
M  V30 65 1 88 89
M  V30 66 1 89 90
M  V30 67 1 91 92
M  V30 68 1 92 93
M  V30 69 1 94 95
M  V30 70 1 95 96
M  V30 71 1 97 98
M  V30 72 1 98 99
M  V30 73 1 2 76
M  V30 74 1 3 67
M  V30 75 1 4 64
M  V30 76 1 5 91
M  V30 77 1 7 73
M  V30 78 1 8 52
M  V30 79 1 9 88
M  V30 80 1 10 85
M  V30 81 1 12 55
M  V30 82 1 13 97
M  V30 83 1 14 61
M  V30 84 1 15 82
M  V30 85 1 17 63
M  V30 86 1 18 79
M  V30 87 1 19 49
M  V30 88 1 20 58
M  V30 89 1 22 75
M  V30 90 1 23 99
M  V30 91 1 24 51
M  V30 92 1 25 46
M  V30 93 1 27 81
M  V30 94 1 28 70
M  V30 95 1 29 66
M  V30 96 1 30 60
M  V30 97 1 32 78
M  V30 98 1 33 72
M  V30 99 1 34 84
M  V30 100 1 35 57
M  V30 101 1 37 48
M  V30 102 1 38 94
M  V30 103 1 39 90
M  V30 104 1 40 93
M  V30 105 1 42 54
M  V30 106 1 43 69
M  V30 107 1 44 96
M  V30 108 1 45 87
M  V30 END BOND
M  V30 END CTAB
M  END

$$$$
