
     RDKit          3D

  0  0  0  0  0  0  0  0  0  0999 V3000
M  V30 BEGIN CTAB
M  V30 COUNTS 99 108 0 0 0
M  V30 BEGIN ATOM
M  V30 1 Pd -2.5663 -3.7281 -0.7890 0
M  V30 2 Pb -3.3618 -3.1614 -1.0097 0
M  V30 3 Pb -2.9783 -3.9994 0.0852 0
M  V30 4 Pb -2.2117 -3.5606 -1.7094 0
M  V30 5 Pb -1.7137 -4.2001 -0.5666 0
M  V30 6 Pd 2.1500 -2.9497 -4.0445 0
M  V30 7 Pb 2.2008 -2.9822 -3.0482 0
M  V30 8 Pb 3.1080 -2.6733 -4.0627 0
M  V30 9 Pb 1.1661 -3.1301 -4.0408 0
M  V30 10 Pb 2.0910 -2.7153 -5.0099 0
M  V30 11 Pd 3.2516 1.2277 -2.1024 0
M  V30 12 Pb 2.5598 1.7218 -1.5786 0
M  V30 13 Pb 3.9426 0.7118 -2.6061 0
M  V30 14 Pb 3.3791 2.0214 -2.7037 0
M  V30 15 Pb 3.0892 0.4079 -1.5461 0
M  V30 16 Pd -3.9063 3.2806 -3.0621 0
M  V30 17 Pb -3.3697 4.0935 -3.2906 0
M  V30 18 Pb -3.9784 3.6039 -2.1191 0
M  V30 19 Pb -3.8249 2.9866 -4.0145 0
M  V30 20 Pb -4.3853 2.4330 -2.8229 0
M  V30 21 Pd 2.6408 2.3126 3.1782 0
M  V30 22 Pb 3.1572 2.1769 4.0171 0
M  V30 23 Pb 2.0783 3.0015 3.6361 0
M  V30 24 Pb 2.1247 2.4676 2.3354 0
M  V30 25 Pb 3.1795 1.5636 2.7457 0
M  V30 26 Pd 0.2637 3.4633 -5.9959 0
M  V30 27 Pb -0.6547 3.2028 -6.2919 0
M  V30 28 Pb -0.1382 4.2290 -5.4936 0
M  V30 29 Pb 1.1731 3.6781 -5.6310 0
M  V30 30 Pb 0.6274 2.6747 -6.4889 0
M  V30 31 Pd -2.9846 -2.7891 4.8299 0
M  V30 32 Pb -3.6791 -2.1129 4.5910 0
M  V30 33 Pb -2.2795 -3.4565 5.0681 0
M  V30 34 Pb -2.5962 -2.1377 5.4840 0
M  V30 35 Pb -3.3472 -3.4125 4.1375 0
M  V30 36 Pd 3.8221 -3.3523 3.4299 0
M  V30 37 Pb 3.3751 -4.0421 3.9917 0
M  V30 38 Pb 4.1024 -2.5348 2.8977 0
M  V30 39 Pb 3.3543 -3.7587 2.6446 0
M  V30 40 Pb 4.2628 -2.9638 4.2323 0
M  V30 41 Pd -2.5758 2.4176 4.5246 0
M  V30 42 Pb -2.9148 3.0072 3.7932 0
M  V30 43 Pb -2.2503 1.7999 5.2420 0
M  V30 44 Pb -3.3560 1.8107 4.3779 0
M  V30 45 Pb -1.7946 3.0299 4.6613 0
M  V30 46 Ag -4.0188 3.8712 -1.4200 0
M  V30 47 Fe -3.6048 3.6558 0.9077 0
M  V30 48 Ag -3.1840 3.4240 3.2325 0
M  V30 49 Ag -1.0360 -4.4866 -0.4223 0
M  V30 50 Fe 0.9793 -4.3251 0.8247 0
M  V30 51 Ag 2.9692 -4.1088 2.1036 0
M  V30 52 Ag 2.0380 -2.3781 -5.6719 0
M  V30 53 Fe 1.4789 -0.2115 -6.4533 0
M  V30 54 Ag 0.8589 2.0465 -6.8234 0
M  V30 55 Ag -1.7212 -3.9306 5.2265 0
M  V30 56 Fe 0.5886 -4.3703 4.9162 0
M  V30 57 Ag 2.8972 -4.4600 4.3823 0
M  V30 58 Ag -3.9081 -2.6782 -1.1912 0
M  V30 59 Fe -4.3868 -0.4640 -1.9129 0
M  V30 60 Ag -4.7059 1.7787 -2.6349 0
M  V30 61 Ag 3.5517 1.9363 4.5958 0
M  V30 62 Fe 4.3032 -0.2263 5.1451 0
M  V30 63 Ag 4.5245 -2.5418 4.7812 0
M  V30 64 Ba -4.1805 -1.5843 4.4202 0
M  V30 65 Ga -4.0842 -0.1168 4.3357 0
M  V30 66 Ba -3.9335 1.3469 4.2655 0
M  V30 67 Ba -2.9296 4.6749 -3.4681 0
M  V30 68 Ga -1.7045 4.7682 -4.2851 0
M  V30 69 Ba -0.4861 4.7767 -5.1172 0
M  V30 70 Ba -3.3278 -4.2669 0.6974 0
M  V30 71 Ga -3.4424 -4.0355 2.1521 0
M  V30 72 Ba -3.6154 -3.8739 3.6107 0
M  V30 73 Ba 2.0417 2.0749 -1.1696 0
M  V30 74 Ga 1.8856 2.3423 0.2718 0
M  V30 75 Ba 1.7296 2.6091 1.7133 0
M  V30 76 Ba -3.7354 2.8051 -4.7367 0
M  V30 77 Ga -2.5670 2.8802 -5.6332 0
M  V30 78 Ba -1.3517 2.9858 -6.4617 0
M  V30 79 Ba 3.7939 -2.3776 -4.0690 0
M  V30 80 Ga 4.2002 -1.0661 -3.5412 0
M  V30 81 Ba 4.4284 0.2660 -2.9604 0
M  V30 82 Ba 1.6387 3.4945 3.9921 0
M  V30 83 Ga 0.2122 3.5016 4.3734 0
M  V30 84 Ba -1.2153 3.5009 4.7513 0
M  V30 85 Ba 2.2705 -2.8685 -2.3115 0
M  V30 86 Ga 2.6113 -1.5845 -1.6652 0
M  V30 87 Ba 2.9586 -0.2348 -1.1741 0
M  V30 88 Ba -2.2992 -1.6274 5.9490 0
M  V30 89 Ga -2.1542 -0.1590 5.8802 0
M  V30 90 Ba -2.0325 1.3086 5.7669 0
M  V30 91 Ba 3.6040 1.0148 2.4152 0
M  V30 92 Ga 3.9053 -0.4484 2.5063 0
M  V30 93 Ba 4.2782 -1.8981 2.5104 0
M  V30 94 Ba -1.9942 -3.4934 -2.4245 0
M  V30 95 Ga -0.7540 -3.3502 -3.2113 0
M  V30 96 Ba 0.4214 -3.2083 -4.0920 0
M  V30 97 Ba 3.4656 2.6070 -3.1708 0
M  V30 98 Ga 2.6581 3.2171 -4.2508 0
M  V30 99 Ba 1.8481 3.8250 -5.3303 0
M  V30 END ATOM
M  V30 BEGIN BOND
M  V30 1 1 1 2
M  V30 2 1 1 3
M  V30 3 1 1 4
M  V30 4 1 1 5
M  V30 5 1 6 7
M  V30 6 1 6 8
M  V30 7 1 6 9
M  V30 8 1 6 10
M  V30 9 1 11 12
M  V30 10 1 11 13
M  V30 11 1 11 14
M  V30 12 1 11 15
M  V30 13 1 16 17
M  V30 14 1 16 18
M  V30 15 1 16 19
M  V30 16 1 16 20
M  V30 17 1 21 22
M  V30 18 1 21 23
M  V30 19 1 21 24
M  V30 20 1 21 25
M  V30 21 1 26 27
M  V30 22 1 26 28
M  V30 23 1 26 29
M  V30 24 1 26 30
M  V30 25 1 31 32
M  V30 26 1 31 33
M  V30 27 1 31 34
M  V30 28 1 31 35
M  V30 29 1 36 37
M  V30 30 1 36 38
M  V30 31 1 36 39
M  V30 32 1 36 40
M  V30 33 1 41 42
M  V30 34 1 41 43
M  V30 35 1 41 44
M  V30 36 1 41 45
M  V30 37 1 46 47
M  V30 38 1 47 48
M  V30 39 1 49 50
M  V30 40 1 50 51
M  V30 41 1 52 53
M  V30 42 1 53 54
M  V30 43 1 55 56
M  V30 44 1 56 57
M  V30 45 1 58 59
M  V30 46 1 59 60
M  V30 47 1 61 62
M  V30 48 1 62 63
M  V30 49 1 64 65
M  V30 50 1 65 66
M  V30 51 1 67 68
M  V30 52 1 68 69
M  V30 53 1 70 71
M  V30 54 1 71 72
M  V30 55 1 73 74
M  V30 56 1 74 75
M  V30 57 1 76 77
M  V30 58 1 77 78
M  V30 59 1 79 80
M  V30 60 1 80 81
M  V30 61 1 82 83
M  V30 62 1 83 84
M  V30 63 1 85 86
M  V30 64 1 86 87
M  V30 65 1 88 89
M  V30 66 1 89 90
M  V30 67 1 91 92
M  V30 68 1 92 93
M  V30 69 1 94 95
M  V30 70 1 95 96
M  V30 71 1 97 98
M  V30 72 1 98 99
M  V30 73 1 2 58
M  V30 74 1 3 70
M  V30 75 1 4 94
M  V30 76 1 5 49
M  V30 77 1 7 85
M  V30 78 1 8 79
M  V30 79 1 9 96
M  V30 80 1 10 52
M  V30 81 1 12 73
M  V30 82 1 13 81
M  V30 83 1 14 97
M  V30 84 1 15 87
M  V30 85 1 17 67
M  V30 86 1 18 46
M  V30 87 1 19 76
M  V30 88 1 20 60
M  V30 89 1 22 61
M  V30 90 1 23 82
M  V30 91 1 24 75
M  V30 92 1 25 91
M  V30 93 1 27 78
M  V30 94 1 28 69
M  V30 95 1 29 99
M  V30 96 1 30 54
M  V30 97 1 32 64
M  V30 98 1 33 55
M  V30 99 1 34 88
M  V30 100 1 35 72
M  V30 101 1 37 57
M  V30 102 1 38 93
M  V30 103 1 39 51
M  V30 104 1 40 63
M  V30 105 1 42 48
M  V30 106 1 43 90
M  V30 107 1 44 66
M  V30 108 1 45 84
M  V30 END BOND
M  V30 END CTAB
M  END

$$$$
