
     RDKit          3D

  0  0  0  0  0  0  0  0  0  0999 V3000
M  V30 BEGIN CTAB
M  V30 COUNTS 99 108 0 0 0
M  V30 BEGIN ATOM
M  V30 1 Pd -1.8025 0.4377 4.0686 0
M  V30 2 Pb -1.5938 -0.3819 4.5948 0
M  V30 3 Pb -2.3077 -0.1303 3.4200 0
M  V30 4 Pb -1.3073 0.9775 4.7528 0
M  V30 5 Pb -1.9454 1.2348 3.4809 0
M  V30 6 Pd -6.7783 -1.3343 -5.3881 0
M  V30 7 Pb -5.8246 -1.5899 -5.5368 0
M  V30 8 Pb -7.7150 -1.0665 -5.1737 0
M  V30 9 Pb -6.5880 -0.4006 -5.6877 0
M  V30 10 Pb -6.9607 -2.2233 -4.9685 0
M  V30 11 Pd 5.8291 -3.3657 -0.2378 0
M  V30 12 Pb 6.3605 -3.3600 0.6119 0
M  V30 13 Pb 5.2719 -3.3241 -1.0700 0
M  V30 14 Pb 6.4628 -2.7160 -0.6553 0
M  V30 15 Pb 5.1907 -4.0041 0.1914 0
M  V30 16 Pd 6.4428 3.7313 -0.5279 0
M  V30 17 Pb 7.0317 3.0808 -0.9993 0
M  V30 18 Pb 5.7754 4.2476 0.0082 0
M  V30 19 Pb 5.9210 3.8754 -1.3657 0
M  V30 20 Pb 6.8853 3.4894 0.3318 0
M  V30 21 Pd 0.6788 0.6118 -4.5429 0
M  V30 22 Pb -0.0377 -0.0451 -4.7758 0
M  V30 23 Pb 1.3110 -0.1536 -4.3964 0
M  V30 24 Pb 1.4037 1.2828 -4.3835 0
M  V30 25 Pb 0.0438 1.3755 -4.6757 0
M  V30 26 Pd 3.4592 1.7792 5.6477 0
M  V30 27 Pb 3.3050 2.5621 5.0425 0
M  V30 28 Pb 3.6680 0.9832 6.2205 0
M  V30 29 Pb 2.5099 1.8325 5.9652 0
M  V30 30 Pb 4.4034 1.7827 5.3255 0
M  V30 31 Pd 4.2134 -3.5493 4.7312 0
M  V30 32 Pb 3.2730 -3.6213 5.0539 0
M  V30 33 Pb 4.3832 -2.9260 5.4983 0
M  V30 34 Pb 4.0064 -4.1490 3.9575 0
M  V30 35 Pb 5.1478 -3.4592 4.3827 0
M  V30 36 Pd -4.3553 2.7844 -2.8019 0
M  V30 37 Pb -3.5431 2.9393 -3.3697 0
M  V30 38 Pb -5.1697 2.6753 -2.2254 0
M  V30 39 Pb -4.8644 2.6108 -3.6495 0
M  V30 40 Pb -3.8516 2.9925 -1.9616 0
M  V30 41 Pd -7.6815 -1.1110 -0.9450 0
M  V30 42 Pb -8.4466 -0.8792 -1.5423 0
M  V30 43 Pb -6.8819 -1.3454 -0.3936 0
M  V30 44 Pb -7.6005 -0.1480 -0.6940 0
M  V30 45 Pb -7.7071 -2.0406 -1.3119 0
M  V30 46 Ag -5.1021 -1.7726 -5.6076 0
M  V30 47 Fe -2.8283 -1.1627 -5.3019 0
M  V30 48 Ag -0.5589 -0.5395 -4.9896 0
M  V30 49 Ag -1.3648 -1.0036 4.9373 0
M  V30 50 Fe 0.5271 -2.4059 5.2033 0
M  V30 51 Ag 2.5642 -3.6140 5.2884 0
M  V30 52 Ag 5.4929 3.9128 -1.9774 0
M  V30 53 Fe 3.7110 2.8817 -3.1601 0
M  V30 54 Ag 1.9266 1.8162 -4.3080 0
M  V30 55 Ag 5.2632 4.5205 0.4832 0
M  V30 56 Fe 4.1728 3.9619 2.5189 0
M  V30 57 Ag 3.2663 3.1297 4.5515 0
M  V30 58 Ag 7.1172 3.2554 1.0016 0
M  V30 59 Fe 6.2625 2.5239 3.0885 0
M  V30 60 Ag 5.0889 1.8513 5.0357 0
M  V30 61 Ag 6.9054 -2.1980 -0.9659 0
M  V30 62 Fe 7.2916 0.1275 -1.2254 0
M  V30 63 Ag 7.3996 2.4958 -1.2801 0
M  V30 64 Ag -2.0255 1.7992 2.9925 0
M  V30 65 Fe -2.7650 2.5042 0.8468 0
M  V30 66 Ag -3.5191 3.1615 -1.3089 0
M  V30 67 Ag -2.6880 -0.5840 2.9607 0
M  V30 68 Fe -4.4890 -1.0263 1.4783 0
M  V30 69 Ag -6.2655 -1.5355 -0.0122 0
M  V30 70 Ag 4.8616 -3.2555 -1.6970 0
M  V30 71 Fe 3.3108 -1.9980 -2.9894 0
M  V30 72 Ag 1.7609 -0.7488 -4.2911 0
M  V30 73 Ba -0.4016 1.9727 -4.7780 0
M  V30 74 Ga -1.6909 2.4908 -4.2737 0
M  V30 75 Ba -2.9668 3.0908 -3.8300 0
M  V30 76 Ba 4.7268 -4.4726 0.5480 0
M  V30 77 Ga 4.2743 -4.5483 1.9500 0
M  V30 78 Ba 3.8520 -4.5805 3.3631 0
M  V30 79 Ba -7.1118 -2.8346 -4.5614 0
M  V30 80 Ga -7.4185 -2.8734 -3.1198 0
M  V30 81 Ba -7.7000 -2.6913 -1.6840 0
M  V30 82 Ba -8.3914 -0.8717 -4.9238 0
M  V30 83 Ga -8.7908 -0.7644 -3.5138 0
M  V30 84 Ba -8.9668 -0.7227 -2.0555 0
M  V30 85 Ba 6.7332 -3.3426 1.2651 0
M  V30 86 Ga 6.3070 -3.3733 2.6798 0
M  V30 87 Ba 5.8332 -3.4074 4.0791 0
M  V30 88 Ba -6.4565 0.3193 -5.8481 0
M  V30 89 Ga -5.8287 1.4142 -5.0799 0
M  V30 90 Ba -5.2039 2.5135 -4.3157 0
M  V30 91 Ba -0.9545 1.3412 5.3090 0
M  V30 92 Ga 0.4363 1.6215 5.7244 0
M  V30 93 Ba 1.8014 1.9356 6.1970 0
M  V30 94 Ba -5.7474 2.6367 -1.7425 0
M  V30 95 Ga -6.6356 1.6087 -1.1623 0
M  V30 96 Ba -7.5303 0.5886 -0.5782 0
M  V30 97 Ba 3.8890 0.3906 6.6293 0
M  V30 98 Ga 4.1654 -1.0363 6.3534 0
M  V30 99 Ba 4.4456 -2.4650 6.0906 0
M  V30 END ATOM
M  V30 BEGIN BOND
M  V30 1 1 1 2
M  V30 2 1 1 3
M  V30 3 1 1 4
M  V30 4 1 1 5
M  V30 5 1 6 7
M  V30 6 1 6 8
M  V30 7 1 6 9
M  V30 8 1 6 10
M  V30 9 1 11 12
M  V30 10 1 11 13
M  V30 11 1 11 14
M  V30 12 1 11 15
M  V30 13 1 16 17
M  V30 14 1 16 18
M  V30 15 1 16 19
M  V30 16 1 16 20
M  V30 17 1 21 22
M  V30 18 1 21 23
M  V30 19 1 21 24
M  V30 20 1 21 25
M  V30 21 1 26 27
M  V30 22 1 26 28
M  V30 23 1 26 29
M  V30 24 1 26 30
M  V30 25 1 31 32
M  V30 26 1 31 33
M  V30 27 1 31 34
M  V30 28 1 31 35
M  V30 29 1 36 37
M  V30 30 1 36 38
M  V30 31 1 36 39
M  V30 32 1 36 40
M  V30 33 1 41 42
M  V30 34 1 41 43
M  V30 35 1 41 44
M  V30 36 1 41 45
M  V30 37 1 46 47
M  V30 38 1 47 48
M  V30 39 1 49 50
M  V30 40 1 50 51
M  V30 41 1 52 53
M  V30 42 1 53 54
M  V30 43 1 55 56
M  V30 44 1 56 57
M  V30 45 1 58 59
M  V30 46 1 59 60
M  V30 47 1 61 62
M  V30 48 1 62 63
M  V30 49 1 64 65
M  V30 50 1 65 66
M  V30 51 1 67 68
M  V30 52 1 68 69
M  V30 53 1 70 71
M  V30 54 1 71 72
M  V30 55 1 73 74
M  V30 56 1 74 75
M  V30 57 1 76 77
M  V30 58 1 77 78
M  V30 59 1 79 80
M  V30 60 1 80 81
M  V30 61 1 82 83
M  V30 62 1 83 84
M  V30 63 1 85 86
M  V30 64 1 86 87
M  V30 65 1 88 89
M  V30 66 1 89 90
M  V30 67 1 91 92
M  V30 68 1 92 93
M  V30 69 1 94 95
M  V30 70 1 95 96
M  V30 71 1 97 98
M  V30 72 1 98 99
M  V30 73 1 2 49
M  V30 74 1 3 67
M  V30 75 1 4 91
M  V30 76 1 5 64
M  V30 77 1 7 46
M  V30 78 1 8 82
M  V30 79 1 9 88
M  V30 80 1 10 79
M  V30 81 1 12 85
M  V30 82 1 13 70
M  V30 83 1 14 61
M  V30 84 1 15 76
M  V30 85 1 17 63
M  V30 86 1 18 55
M  V30 87 1 19 52
M  V30 88 1 20 58
M  V30 89 1 22 48
M  V30 90 1 23 72
M  V30 91 1 24 54
M  V30 92 1 25 73
M  V30 93 1 27 57
M  V30 94 1 28 97
M  V30 95 1 29 93
M  V30 96 1 30 60
M  V30 97 1 32 51
M  V30 98 1 33 99
M  V30 99 1 34 78
M  V30 100 1 35 87
M  V30 101 1 37 75
M  V30 102 1 38 94
M  V30 103 1 39 90
M  V30 104 1 40 66
M  V30 105 1 42 84
M  V30 106 1 43 69
M  V30 107 1 44 96
M  V30 108 1 45 81
M  V30 END BOND
M  V30 END CTAB
M  END

$$$$
