
     RDKit          3D

  0  0  0  0  0  0  0  0  0  0999 V3000
M  V30 BEGIN CTAB
M  V30 COUNTS 99 108 0 0 0
M  V30 BEGIN ATOM
M  V30 1 Pd 0.2859 2.1329 -3.5922 0
M  V30 2 Pb -0.6093 2.1087 -4.0388 0
M  V30 3 Pb -0.1364 2.7365 -2.9205 0
M  V30 4 Pb 0.6952 1.5752 -4.3189 0
M  V30 5 Pb 1.1726 2.1614 -3.1216 0
M  V30 6 Pd -0.0082 5.3379 7.6990 0
M  V30 7 Pb -0.4205 4.4367 7.5705 0
M  V30 8 Pb 0.4229 6.2353 7.6477 0
M  V30 9 Pb 0.8960 4.9331 7.6113 0
M  V30 10 Pb -0.8810 5.7846 7.5156 0
M  V30 11 Pd -3.0743 -4.0974 0.5640 0
M  V30 12 Pb -3.4399 -4.3054 -0.3370 0
M  V30 13 Pb -2.8023 -3.9251 1.5151 0
M  V30 14 Pb -2.7358 -5.0408 0.5897 0
M  V30 15 Pb -3.4106 -3.1537 0.4704 0
M  V30 16 Pd 1.3289 -7.0800 -1.3093 0
M  V30 17 Pb 0.3938 -7.1862 -0.9585 0
M  V30 18 Pb 1.0631 -7.2439 -2.2798 0
M  V30 19 Pb 1.6148 -6.8102 -0.3951 0
M  V30 20 Pb 2.2766 -7.0157 -1.5983 0
M  V30 21 Pd 0.6276 -1.4309 3.8505 0
M  V30 22 Pb 0.2043 -0.6777 4.3596 0
M  V30 23 Pb -0.2037 -1.9697 3.9865 0
M  V30 24 Pb 1.0570 -2.2498 3.4768 0
M  V30 25 Pb 1.4696 -0.9255 3.6450 0
M  V30 26 Pd 1.5690 -4.6542 -6.5839 0
M  V30 27 Pb 1.2916 -5.5197 -6.1236 0
M  V30 28 Pb 0.6254 -4.4433 -6.8265 0
M  V30 29 Pb 1.8057 -3.7240 -6.8593 0
M  V30 30 Pb 2.5190 -4.8414 -6.3623 0
M  V30 31 Pd -4.1327 -1.1817 -3.7200 0
M  V30 32 Pb -3.8976 -0.2513 -4.0040 0
M  V30 33 Pb -3.9635 -1.5058 -4.6455 0
M  V30 34 Pb -4.2304 -0.9264 -2.7538 0
M  V30 35 Pb -4.3373 -2.1249 -3.4833 0
M  V30 36 Pd 3.1825 3.2433 1.4049 0
M  V30 37 Pb 3.2848 2.3053 1.7445 0
M  V30 38 Pb 3.1391 4.1973 1.0869 0
M  V30 39 Pb 3.2553 3.5074 2.3678 0
M  V30 40 Pb 3.1941 2.9377 0.4472 0
M  V30 41 Pd 0.0860 7.8211 1.7406 0
M  V30 42 Pb 0.5774 8.3251 2.4479 0
M  V30 43 Pb -0.4108 7.2399 1.1030 0
M  V30 44 Pb 0.9356 7.6126 1.2543 0
M  V30 45 Pb -0.7337 7.9233 2.3061 0
M  V30 46 Ag -0.7057 3.7702 7.3786 0
M  V30 47 Fe -0.4096 1.7906 6.0960 0
M  V30 48 Ag -0.1506 -0.1985 4.8202 0
M  V30 49 Ag 1.8336 -6.5329 0.2611 0
M  V30 50 Fe 1.6159 -4.7278 1.7829 0
M  V30 51 Ag 1.3668 -2.8982 3.2703 0
M  V30 52 Ag -1.4347 6.1588 7.1813 0
M  V30 53 Fe -1.6393 7.1506 5.0352 0
M  V30 54 Ag -1.2773 7.9323 2.8235 0
M  V30 55 Ag 0.7313 6.8797 7.4333 0
M  V30 56 Fe 0.9677 7.9995 5.3592 0
M  V30 57 Ag 0.8743 8.6087 3.0717 0
M  V30 58 Ag 2.9416 -6.9247 -1.9089 0
M  V30 59 Fe 3.6034 -6.0269 -3.9793 0
M  V30 60 Ag 3.1674 -5.0328 -6.0650 0
M  V30 61 Ag 1.5544 4.6867 7.3633 0
M  V30 62 Fe 2.5416 4.1171 5.2810 0
M  V30 63 Ag 3.3482 3.6024 3.1079 0
M  V30 64 Ag 1.0075 1.1824 -4.8808 0
M  V30 65 Fe 1.4996 -0.8728 -5.9689 0
M  V30 66 Ag 1.9266 -2.9912 -6.9584 0
M  V30 67 Ag -0.5078 3.2133 -2.4810 0
M  V30 68 Fe -0.6249 4.9864 -0.9111 0
M  V30 69 Ag -0.7662 6.7561 0.6606 0
M  V30 70 Ag -0.0642 -4.2185 -7.0040 0
M  V30 71 Fe -1.9861 -3.0401 -6.2736 0
M  V30 72 Ag -3.7678 -1.8288 -5.2875 0
M  V30 73 Ba -1.3022 2.1302 -4.3278 0
M  V30 74 Ga -2.4991 1.2664 -4.2935 0
M  V30 75 Ba -3.7110 0.4233 -4.2759 0
M  V30 76 Ba 2.1352 -0.6366 3.4413 0
M  V30 77 Ga 2.7169 0.5311 2.7440 0
M  V30 78 Ba 3.4250 1.6389 2.0661 0
M  V30 79 Ba 0.8923 -7.3704 -3.0196 0
M  V30 80 Ga 1.0028 -6.7139 -4.3632 0
M  V30 81 Ba 1.0627 -6.1535 -5.7527 0
M  V30 82 Ba -3.6661 -2.4491 0.3691 0
M  V30 83 Ga -3.9761 -1.6101 -0.8139 0
M  V30 84 Ba -4.2786 -0.7915 -2.0129 0
M  V30 85 Ba -3.7569 -4.4709 -0.9900 0
M  V30 86 Ga -4.1149 -3.6773 -2.1701 0
M  V30 87 Ba -4.4529 -2.8431 -3.3278 0
M  V30 88 Ba -2.5187 -5.7599 0.5366 0
M  V30 89 Ga -1.3795 -6.5013 -0.0500 0
M  V30 90 Ba -0.2705 -7.2999 -0.6189 0
M  V30 91 Ba 1.8556 2.1597 -2.8023 0
M  V30 92 Ga 2.5032 2.4531 -1.5035 0
M  V30 93 Ba 3.2774 2.7091 -0.2677 0
M  V30 94 Ba 3.1514 4.9039 0.8169 0
M  V30 95 Ga 2.3492 6.1466 0.8767 0
M  V30 96 Ba 1.5727 7.4067 0.9134 0
M  V30 97 Ba -2.6692 -3.8116 2.2488 0
M  V30 98 Ga -1.7261 -3.0939 3.1319 0
M  V30 99 Ba -0.8142 -2.3983 4.0643 0
M  V30 END ATOM
M  V30 BEGIN BOND
M  V30 1 1 1 2
M  V30 2 1 1 3
M  V30 3 1 1 4
M  V30 4 1 1 5
M  V30 5 1 6 7
M  V30 6 1 6 8
M  V30 7 1 6 9
M  V30 8 1 6 10
M  V30 9 1 11 12
M  V30 10 1 11 13
M  V30 11 1 11 14
M  V30 12 1 11 15
M  V30 13 1 16 17
M  V30 14 1 16 18
M  V30 15 1 16 19
M  V30 16 1 16 20
M  V30 17 1 21 22
M  V30 18 1 21 23
M  V30 19 1 21 24
M  V30 20 1 21 25
M  V30 21 1 26 27
M  V30 22 1 26 28
M  V30 23 1 26 29
M  V30 24 1 26 30
M  V30 25 1 31 32
M  V30 26 1 31 33
M  V30 27 1 31 34
M  V30 28 1 31 35
M  V30 29 1 36 37
M  V30 30 1 36 38
M  V30 31 1 36 39
M  V30 32 1 36 40
M  V30 33 1 41 42
M  V30 34 1 41 43
M  V30 35 1 41 44
M  V30 36 1 41 45
M  V30 37 1 46 47
M  V30 38 1 47 48
M  V30 39 1 49 50
M  V30 40 1 50 51
M  V30 41 1 52 53
M  V30 42 1 53 54
M  V30 43 1 55 56
M  V30 44 1 56 57
M  V30 45 1 58 59
M  V30 46 1 59 60
M  V30 47 1 61 62
M  V30 48 1 62 63
M  V30 49 1 64 65
M  V30 50 1 65 66
M  V30 51 1 67 68
M  V30 52 1 68 69
M  V30 53 1 70 71
M  V30 54 1 71 72
M  V30 55 1 73 74
M  V30 56 1 74 75
M  V30 57 1 76 77
M  V30 58 1 77 78
M  V30 59 1 79 80
M  V30 60 1 80 81
M  V30 61 1 82 83
M  V30 62 1 83 84
M  V30 63 1 85 86
M  V30 64 1 86 87
M  V30 65 1 88 89
M  V30 66 1 89 90
M  V30 67 1 91 92
M  V30 68 1 92 93
M  V30 69 1 94 95
M  V30 70 1 95 96
M  V30 71 1 97 98
M  V30 72 1 98 99
M  V30 73 1 2 73
M  V30 74 1 3 67
M  V30 75 1 4 64
M  V30 76 1 5 91
M  V30 77 1 7 46
M  V30 78 1 8 55
M  V30 79 1 9 61
M  V30 80 1 10 52
M  V30 81 1 12 85
M  V30 82 1 13 97
M  V30 83 1 14 88
M  V30 84 1 15 82
M  V30 85 1 17 90
M  V30 86 1 18 79
M  V30 87 1 19 49
M  V30 88 1 20 58
M  V30 89 1 22 48
M  V30 90 1 23 99
M  V30 91 1 24 51
M  V30 92 1 25 76
M  V30 93 1 27 81
M  V30 94 1 28 70
M  V30 95 1 29 66
M  V30 96 1 30 60
M  V30 97 1 32 75
M  V30 98 1 33 72
M  V30 99 1 34 84
M  V30 100 1 35 87
M  V30 101 1 37 78
M  V30 102 1 38 94
M  V30 103 1 39 63
M  V30 104 1 40 93
M  V30 105 1 42 57
M  V30 106 1 43 69
M  V30 107 1 44 96
M  V30 108 1 45 54
M  V30 END BOND
M  V30 END CTAB
M  END

$$$$
