
     RDKit          3D

  0  0  0  0  0  0  0  0  0  0999 V3000
M  V30 BEGIN CTAB
M  V30 COUNTS 99 108 0 0 0
M  V30 BEGIN ATOM
M  V30 1 Pd 2.1205 1.8336 5.0906 0
M  V30 2 Pb 2.6022 0.9579 5.1667 0
M  V30 3 Pb 1.2747 1.3874 5.3878 0
M  V30 4 Pb 2.9554 2.3312 4.8401 0
M  V30 5 Pb 1.5905 2.6701 4.9724 0
M  V30 6 Pd -5.2022 -3.0830 0.2922 0
M  V30 7 Pb -4.2422 -3.0856 0.0127 0
M  V30 8 Pb -6.1198 -2.9443 0.6572 0
M  V30 9 Pb -5.4217 -2.4356 -0.4298 0
M  V30 10 Pb -4.9730 -3.5952 1.1171 0
M  V30 11 Pd 1.3756 -3.2147 -4.8277 0
M  V30 12 Pb 2.3558 -3.3023 -4.6521 0
M  V30 13 Pb 0.3889 -3.1422 -4.9774 0
M  V30 14 Pb 1.5389 -2.6353 -5.6287 0
M  V30 15 Pb 1.2383 -3.7433 -3.9876 0
M  V30 16 Pd 1.9552 2.0422 -5.2619 0
M  V30 17 Pb 1.9646 1.3157 -5.9521 0
M  V30 18 Pb 2.9054 1.8573 -5.0218 0
M  V30 19 Pb 0.9952 2.2322 -5.4658 0
M  V30 20 Pb 1.9591 2.7262 -4.5276 0
M  V30 21 Pd -2.0634 0.1241 -2.8931 0
M  V30 22 Pb -1.9558 -0.5685 -2.1770 0
M  V30 23 Pb -2.2544 -0.6239 -3.5263 0
M  V30 24 Pb -2.1141 0.7790 -3.6449 0
M  V30 25 Pb -1.8052 0.8878 -2.2953 0
M  V30 26 Pd 5.7586 3.0242 0.8616 0
M  V30 27 Pb 5.9534 2.7039 -0.0637 0
M  V30 28 Pb 6.4542 2.4014 1.2113 0
M  V30 29 Pb 5.5434 3.3063 1.7979 0
M  V30 30 Pb 5.0176 3.5662 0.4607 0
M  V30 31 Pd 5.2294 -3.8612 1.2287 0
M  V30 32 Pb 4.9225 -3.6721 2.1618 0
M  V30 33 Pb 6.0503 -3.3375 1.4419 0
M  V30 34 Pb 4.3649 -4.2924 0.9666 0
M  V30 35 Pb 5.4948 -3.9336 0.2682 0
M  V30 36 Pd -3.8257 3.5808 1.1910 0
M  V30 37 Pb -3.0513 3.5319 0.5611 0
M  V30 38 Pb -4.5616 3.5215 1.8686 0
M  V30 39 Pb -4.3794 3.1220 0.5010 0
M  V30 40 Pb -3.2352 4.0196 1.8656 0
M  V30 41 Pd -5.3874 -0.5268 4.2657 0
M  V30 42 Pb -6.2187 -0.7881 3.7728 0
M  V30 43 Pb -4.5476 -0.3124 4.7677 0
M  V30 44 Pb -5.6443 0.4425 4.2045 0
M  V30 45 Pb -5.1286 -1.4951 4.2776 0
M  V30 46 Ag 2.9035 0.2693 5.2042 0
M  V30 47 Fe 3.8195 -1.6144 4.0800 0
M  V30 48 Ag 4.7245 -3.4330 2.8454 0
M  V30 49 Ag 3.6001 1.7646 -4.7628 0
M  V30 50 Fe 4.9371 2.0627 -2.8265 0
M  V30 51 Ag 6.0416 2.4593 -0.7652 0
M  V30 52 Ag 1.2131 -4.1050 -3.3287 0
M  V30 53 Fe 2.3698 -4.4236 -1.2765 0
M  V30 54 Ag 3.7264 -4.5561 0.6711 0
M  V30 55 Ag 3.0672 -3.4057 -4.4399 0
M  V30 56 Fe 4.4622 -3.6870 -2.5395 0
M  V30 57 Ag 5.6041 -3.9356 -0.4729 0
M  V30 58 Ag 2.0169 3.1987 -3.9433 0
M  V30 59 Fe 3.1716 3.6513 -1.9133 0
M  V30 60 Ag 4.4629 3.8912 0.0701 0
M  V30 61 Ag -5.5738 -1.8385 -0.8455 0
M  V30 62 Fe -5.2606 0.4994 -0.6441 0
M  V30 63 Ag -4.7302 2.7215 -0.0219 0
M  V30 64 Ag 1.1319 3.2468 4.8488 0
M  V30 65 Fe -0.8084 3.8997 3.6510 0
M  V30 66 Ag -2.7519 4.3126 2.3556 0
M  V30 67 Ag 0.6300 1.0980 5.6438 0
M  V30 68 Fe -1.6403 0.4554 5.3567 0
M  V30 69 Ag -3.9126 -0.2129 5.1579 0
M  V30 70 Ag 6.9139 1.8538 1.4254 0
M  V30 71 Fe 6.9662 -0.5096 1.5910 0
M  V30 72 Ag 6.5925 -2.8496 1.5990 0
M  V30 73 Ba -3.5101 -3.0218 -0.1392 0
M  V30 74 Ga -2.6905 -2.0792 -0.9282 0
M  V30 75 Ba -1.8502 -1.1476 -1.7081 0
M  V30 76 Ba -1.5704 1.5004 -1.9236 0
M  V30 77 Ga -2.0403 2.4568 -0.9000 0
M  V30 78 Ba -2.4524 3.4449 0.1185 0
M  V30 79 Ba 0.2671 2.3589 -5.5910 0
M  V30 80 Ga -0.9452 1.8399 -4.9340 0
M  V30 81 Ba -2.0944 1.2649 -4.2136 0
M  V30 82 Ba -4.8191 -3.8695 1.7956 0
M  V30 83 Ga -4.8573 -3.1163 3.0631 0
M  V30 84 Ba -4.9438 -2.2228 4.2338 0
M  V30 85 Ba -6.7570 -2.7445 0.9927 0
M  V30 86 Ga -6.8761 -1.8972 2.1925 0
M  V30 87 Ba -6.8139 -1.0441 3.3927 0
M  V30 88 Ba 1.6579 -2.1765 -6.2125 0
M  V30 89 Ga 1.8163 -0.7131 -6.3462 0
M  V30 90 Ba 1.9713 0.7530 -6.4511 0
M  V30 91 Ba 3.5566 2.7622 4.6954 0
M  V30 92 Ga 4.4645 3.0991 3.5783 0
M  V30 93 Ba 5.4145 3.4904 2.5150 0
M  V30 94 Ba -5.0812 3.4385 2.4065 0
M  V30 95 Ga -5.4732 2.3039 3.2726 0
M  V30 96 Ba -5.8571 1.1632 4.1342 0
M  V30 97 Ba -0.3517 -3.0789 -5.0818 0
M  V30 98 Ga -1.3740 -2.1539 -4.5593 0
M  V30 99 Ba -2.3453 -1.1962 -4.0001 0
M  V30 END ATOM
M  V30 BEGIN BOND
M  V30 1 1 1 2
M  V30 2 1 1 3
M  V30 3 1 1 4
M  V30 4 1 1 5
M  V30 5 1 6 7
M  V30 6 1 6 8
M  V30 7 1 6 9
M  V30 8 1 6 10
M  V30 9 1 11 12
M  V30 10 1 11 13
M  V30 11 1 11 14
M  V30 12 1 11 15
M  V30 13 1 16 17
M  V30 14 1 16 18
M  V30 15 1 16 19
M  V30 16 1 16 20
M  V30 17 1 21 22
M  V30 18 1 21 23
M  V30 19 1 21 24
M  V30 20 1 21 25
M  V30 21 1 26 27
M  V30 22 1 26 28
M  V30 23 1 26 29
M  V30 24 1 26 30
M  V30 25 1 31 32
M  V30 26 1 31 33
M  V30 27 1 31 34
M  V30 28 1 31 35
M  V30 29 1 36 37
M  V30 30 1 36 38
M  V30 31 1 36 39
M  V30 32 1 36 40
M  V30 33 1 41 42
M  V30 34 1 41 43
M  V30 35 1 41 44
M  V30 36 1 41 45
M  V30 37 1 46 47
M  V30 38 1 47 48
M  V30 39 1 49 50
M  V30 40 1 50 51
M  V30 41 1 52 53
M  V30 42 1 53 54
M  V30 43 1 55 56
M  V30 44 1 56 57
M  V30 45 1 58 59
M  V30 46 1 59 60
M  V30 47 1 61 62
M  V30 48 1 62 63
M  V30 49 1 64 65
M  V30 50 1 65 66
M  V30 51 1 67 68
M  V30 52 1 68 69
M  V30 53 1 70 71
M  V30 54 1 71 72
M  V30 55 1 73 74
M  V30 56 1 74 75
M  V30 57 1 76 77
M  V30 58 1 77 78
M  V30 59 1 79 80
M  V30 60 1 80 81
M  V30 61 1 82 83
M  V30 62 1 83 84
M  V30 63 1 85 86
M  V30 64 1 86 87
M  V30 65 1 88 89
M  V30 66 1 89 90
M  V30 67 1 91 92
M  V30 68 1 92 93
M  V30 69 1 94 95
M  V30 70 1 95 96
M  V30 71 1 97 98
M  V30 72 1 98 99
M  V30 73 1 2 46
M  V30 74 1 3 67
M  V30 75 1 4 91
M  V30 76 1 5 64
M  V30 77 1 7 73
M  V30 78 1 8 85
M  V30 79 1 9 61
M  V30 80 1 10 82
M  V30 81 1 12 55
M  V30 82 1 13 97
M  V30 83 1 14 88
M  V30 84 1 15 52
M  V30 85 1 17 90
M  V30 86 1 18 49
M  V30 87 1 19 79
M  V30 88 1 20 58
M  V30 89 1 22 75
M  V30 90 1 23 99
M  V30 91 1 24 81
M  V30 92 1 25 76
M  V30 93 1 27 51
M  V30 94 1 28 70
M  V30 95 1 29 93
M  V30 96 1 30 60
M  V30 97 1 32 48
M  V30 98 1 33 72
M  V30 99 1 34 54
M  V30 100 1 35 57
M  V30 101 1 37 78
M  V30 102 1 38 94
M  V30 103 1 39 63
M  V30 104 1 40 66
M  V30 105 1 42 87
M  V30 106 1 43 69
M  V30 107 1 44 96
M  V30 108 1 45 84
M  V30 END BOND
M  V30 END CTAB
M  END

$$$$
