
     RDKit          3D

  0  0  0  0  0  0  0  0  0  0999 V3000
M  V30 BEGIN CTAB
M  V30 COUNTS 99 108 0 0 0
M  V30 BEGIN ATOM
M  V30 1 Pd 3.1839 -1.9998 0.4812 0
M  V30 2 Pb 2.6218 -1.4417 -0.1328 0
M  V30 3 Pb 3.6611 -1.1761 0.7868 0
M  V30 4 Pb 2.7423 -2.8615 0.2144 0
M  V30 5 Pb 3.6574 -2.5101 1.1962 0
M  V30 6 Pd -0.5962 2.8790 5.4284 0
M  V30 7 Pb -0.7384 2.6339 4.4677 0
M  V30 8 Pb -0.1545 3.7237 5.1300 0
M  V30 9 Pb -0.9190 1.9940 5.7603 0
M  V30 10 Pb -0.3517 3.1122 6.3685 0
M  V30 11 Pd -2.3400 3.9242 -5.5863 0
M  V30 12 Pb -1.5087 4.1911 -5.0773 0
M  V30 13 Pb -2.8718 3.9578 -4.7398 0
M  V30 14 Pb -3.1303 3.5292 -6.0552 0
M  V30 15 Pb -1.7866 3.9116 -6.4157 0
M  V30 16 Pd -5.5652 -2.6521 -5.2609 0
M  V30 17 Pb -5.7123 -1.7858 -5.7415 0
M  V30 18 Pb -5.3425 -3.4822 -4.7534 0
M  V30 19 Pb -6.1365 -2.3593 -4.4960 0
M  V30 20 Pb -4.8670 -2.9315 -5.9208 0
M  V30 21 Pd -3.7552 0.5178 1.0085 0
M  V30 22 Pb -2.9251 0.9806 1.3204 0
M  V30 23 Pb -4.0214 1.3414 0.5106 0
M  V30 24 Pb -4.5657 0.0670 0.6334 0
M  V30 25 Pb -3.4245 -0.3265 1.4313 0
M  V30 26 Pd 0.7685 -5.2196 -3.6056 0
M  V30 27 Pb -0.1213 -5.5941 -3.3539 0
M  V30 28 Pb 1.6243 -4.7769 -3.8617 0
M  V30 29 Pb 1.0935 -5.3072 -2.6643 0
M  V30 30 Pb 0.3788 -5.0500 -4.5129 0
M  V30 31 Pd 2.7010 1.6848 -4.1132 0
M  V30 32 Pb 2.3174 1.2909 -3.2756 0
M  V30 33 Pb 3.2055 0.8378 -4.2604 0
M  V30 34 Pb 2.9487 2.0192 -5.0185 0
M  V30 35 Pb 2.1368 2.5171 -3.9928 0
M  V30 36 Pd 1.7450 -1.9845 5.4376 0
M  V30 37 Pb 1.0473 -2.3467 4.8196 0
M  V30 38 Pb 2.4323 -1.5969 6.0572 0
M  V30 39 Pb 0.9839 -1.5324 5.9074 0
M  V30 40 Pb 2.4820 -2.4598 4.9508 0
M  V30 41 Pd 3.8486 2.8855 6.2016 0
M  V30 42 Pb 3.5096 3.7228 5.7735 0
M  V30 43 Pb 4.3000 2.6346 5.3466 0
M  V30 44 Pb 4.0917 2.0043 6.6082 0
M  V30 45 Pb 3.3072 3.1098 7.0103 0
M  V30 46 Ag -3.1057 -0.9426 1.7179 0
M  V30 47 Fe -1.3429 -1.8282 3.0414 0
M  V30 48 Ag 0.4687 -2.5600 4.3923 0
M  V30 49 Ag -6.4577 -2.1539 -3.8515 0
M  V30 50 Fe -5.9406 -1.1999 -1.7393 0
M  V30 51 Ag -5.1600 -0.2264 0.2812 0
M  V30 52 Ag -5.0805 -4.0734 -4.3782 0
M  V30 53 Fe -3.0418 -5.0838 -3.7096 0
M  V30 54 Ag -0.8306 -5.7942 -3.2303 0
M  V30 55 Ag -1.2441 3.8862 -6.9245 0
M  V30 56 Fe 1.0063 3.1865 -6.7821 0
M  V30 57 Ag 2.9062 2.2857 -5.7100 0
M  V30 58 Ag -4.2649 -3.1706 -6.3003 0
M  V30 59 Fe -2.0919 -4.0458 -5.8983 0
M  V30 60 Ag -0.0032 -4.8903 -5.1406 0
M  V30 61 Ag -3.7086 3.1509 -6.3477 0
M  V30 62 Fe -4.8207 1.0516 -6.2941 0
M  V30 63 Ag -5.7686 -1.1169 -6.0796 0
M  V30 64 Ag 4.0392 -0.5873 1.0564 0
M  V30 65 Fe 4.3568 0.9530 2.8351 0
M  V30 66 Ag 4.5718 2.4346 4.6779 0
M  V30 67 Ag 2.2300 -4.3770 -4.0362 0
M  V30 68 Fe 3.0228 -2.1526 -4.2413 0
M  V30 69 Ag 3.5117 0.1639 -4.3562 0
M  V30 70 Ag -3.2577 3.9835 -4.0970 0
M  V30 71 Fe -3.7643 3.0063 -1.9932 0
M  V30 72 Ag -4.1871 1.9319 0.0813 0
M  V30 73 Ba -0.7520 2.4913 3.7298 0
M  V30 74 Ga -1.5791 1.8891 2.6659 0
M  V30 75 Ba -2.2838 1.3274 1.4967 0
M  V30 76 Ba 2.1557 -0.9801 -0.5013 0
M  V30 77 Ga 2.1272 -0.0168 -1.6218 0
M  V30 78 Ba 1.9452 0.9721 -2.7050 0
M  V30 79 Ba -0.0728 3.2725 7.0445 0
M  V30 80 Ga 1.3525 3.3000 7.4114 0
M  V30 81 Ba 2.8174 3.2687 7.5533 0
M  V30 82 Ba 0.2722 4.3103 4.9448 0
M  V30 83 Ga 1.7265 4.4152 5.1540 0
M  V30 84 Ba 3.1644 4.3066 5.4549 0
M  V30 85 Ba -0.8806 4.3672 -4.6855 0
M  V30 86 Ga 0.4127 3.7236 -4.3193 0
M  V30 87 Ba 1.7273 3.1547 -3.9085 0
M  V30 88 Ba -1.0869 1.3323 6.0693 0
M  V30 89 Ga -0.3682 0.0440 6.1365 0
M  V30 90 Ba 0.3559 -1.2413 6.2032 0
M  V30 91 Ba 2.4694 -3.5550 0.0949 0
M  V30 92 Ga 1.8894 -4.4138 -0.9591 0
M  V30 93 Ba 1.3026 -5.3458 -1.9452 0
M  V30 94 Ba 3.9501 -2.8669 1.7852 0
M  V30 95 Ga 3.5219 -2.8617 3.1976 0
M  V30 96 Ba 3.0423 -2.8134 4.5929 0
M  V30 97 Ba 2.9720 -1.3189 6.5033 0
M  V30 98 Ga 3.6010 0.0023 6.7117 0
M  V30 99 Ba 4.2205 1.3293 6.9106 0
M  V30 END ATOM
M  V30 BEGIN BOND
M  V30 1 1 1 2
M  V30 2 1 1 3
M  V30 3 1 1 4
M  V30 4 1 1 5
M  V30 5 1 6 7
M  V30 6 1 6 8
M  V30 7 1 6 9
M  V30 8 1 6 10
M  V30 9 1 11 12
M  V30 10 1 11 13
M  V30 11 1 11 14
M  V30 12 1 11 15
M  V30 13 1 16 17
M  V30 14 1 16 18
M  V30 15 1 16 19
M  V30 16 1 16 20
M  V30 17 1 21 22
M  V30 18 1 21 23
M  V30 19 1 21 24
M  V30 20 1 21 25
M  V30 21 1 26 27
M  V30 22 1 26 28
M  V30 23 1 26 29
M  V30 24 1 26 30
M  V30 25 1 31 32
M  V30 26 1 31 33
M  V30 27 1 31 34
M  V30 28 1 31 35
M  V30 29 1 36 37
M  V30 30 1 36 38
M  V30 31 1 36 39
M  V30 32 1 36 40
M  V30 33 1 41 42
M  V30 34 1 41 43
M  V30 35 1 41 44
M  V30 36 1 41 45
M  V30 37 1 46 47
M  V30 38 1 47 48
M  V30 39 1 49 50
M  V30 40 1 50 51
M  V30 41 1 52 53
M  V30 42 1 53 54
M  V30 43 1 55 56
M  V30 44 1 56 57
M  V30 45 1 58 59
M  V30 46 1 59 60
M  V30 47 1 61 62
M  V30 48 1 62 63
M  V30 49 1 64 65
M  V30 50 1 65 66
M  V30 51 1 67 68
M  V30 52 1 68 69
M  V30 53 1 70 71
M  V30 54 1 71 72
M  V30 55 1 73 74
M  V30 56 1 74 75
M  V30 57 1 76 77
M  V30 58 1 77 78
M  V30 59 1 79 80
M  V30 60 1 80 81
M  V30 61 1 82 83
M  V30 62 1 83 84
M  V30 63 1 85 86
M  V30 64 1 86 87
M  V30 65 1 88 89
M  V30 66 1 89 90
M  V30 67 1 91 92
M  V30 68 1 92 93
M  V30 69 1 94 95
M  V30 70 1 95 96
M  V30 71 1 97 98
M  V30 72 1 98 99
M  V30 73 1 2 76
M  V30 74 1 3 64
M  V30 75 1 4 91
M  V30 76 1 5 94
M  V30 77 1 7 73
M  V30 78 1 8 82
M  V30 79 1 9 88
M  V30 80 1 10 79
M  V30 81 1 12 85
M  V30 82 1 13 70
M  V30 83 1 14 61
M  V30 84 1 15 55
M  V30 85 1 17 63
M  V30 86 1 18 52
M  V30 87 1 19 49
M  V30 88 1 20 58
M  V30 89 1 22 75
M  V30 90 1 23 72
M  V30 91 1 24 51
M  V30 92 1 25 46
M  V30 93 1 27 54
M  V30 94 1 28 67
M  V30 95 1 29 93
M  V30 96 1 30 60
M  V30 97 1 32 78
M  V30 98 1 33 69
M  V30 99 1 34 57
M  V30 100 1 35 87
M  V30 101 1 37 48
M  V30 102 1 38 97
M  V30 103 1 39 90
M  V30 104 1 40 96
M  V30 105 1 42 84
M  V30 106 1 43 66
M  V30 107 1 44 99
M  V30 108 1 45 81
M  V30 END BOND
M  V30 END CTAB
M  END

$$$$
