
     RDKit          3D

  0  0  0  0  0  0  0  0  0  0999 V3000
M  V30 BEGIN CTAB
M  V30 COUNTS 99 108 0 0 0
M  V30 BEGIN ATOM
M  V30 1 Pd 3.0737 -7.2465 -0.5403 0
M  V30 2 Pb 2.7541 -7.4670 0.3983 0
M  V30 3 Pb 4.0100 -7.2245 -0.2057 0
M  V30 4 Pb 3.3537 -6.8895 -1.4323 0
M  V30 5 Pb 2.1405 -7.2570 -0.8935 0
M  V30 6 Pd -0.0513 5.2521 -1.1952 0
M  V30 7 Pb 0.4216 5.6475 -1.9777 0
M  V30 8 Pb -0.6352 4.8290 -0.4972 0
M  V30 9 Pb 0.8499 5.1043 -0.7357 0
M  V30 10 Pb -0.9104 5.2826 -1.7117 0
M  V30 11 Pd 0.2793 2.1441 -3.5261 0
M  V30 12 Pb 0.2336 1.3644 -2.9116 0
M  V30 13 Pb 0.4285 2.7542 -2.7190 0
M  V30 14 Pb 0.4483 2.9298 -4.1174 0
M  V30 15 Pb 0.2205 1.5587 -4.3414 0
M  V30 16 Pd -0.6067 5.3793 1.7704 0
M  V30 17 Pb 0.1947 5.9108 2.0310 0
M  V30 18 Pb -0.1686 5.1046 0.8986 0
M  V30 19 Pb -1.4474 4.8864 1.5866 0
M  V30 20 Pb -0.9244 5.3852 2.7147 0
M  V30 21 Pd -3.3659 -0.3116 3.2564 0
M  V30 22 Pb -3.8163 -0.8676 2.5500 0
M  V30 23 Pb -3.4967 0.5348 2.7402 0
M  V30 24 Pb -3.1105 -1.1372 3.7623 0
M  V30 25 Pb -3.0060 0.2945 3.9656 0
M  V30 26 Pd 3.8507 2.1191 2.3688 0
M  V30 27 Pb 4.3241 2.8735 2.8146 0
M  V30 28 Pb 3.3196 1.4048 1.9219 0
M  V30 29 Pb 3.6051 2.7959 1.6452 0
M  V30 30 Pb 4.0063 1.5014 3.1401 0
M  V30 31 Pd -0.4266 -3.1417 -5.3513 0
M  V30 32 Pb 0.5275 -3.4354 -5.2732 0
M  V30 33 Pb -1.3881 -2.8877 -5.4094 0
M  V30 34 Pb -0.1837 -2.2612 -5.7605 0
M  V30 35 Pb -0.6695 -3.9789 -4.8657 0
M  V30 36 Pd -5.5458 0.6277 -1.5724 0
M  V30 37 Pb -5.3799 1.4706 -2.0884 0
M  V30 38 Pb -5.5090 1.1844 -0.7556 0
M  V30 39 Pb -5.5681 -0.1991 -1.0071 0
M  V30 40 Pb -5.5192 0.0813 -2.4040 0
M  V30 41 Pd 2.6113 -4.8932 4.7100 0
M  V30 42 Pb 2.8809 -4.0154 5.1036 0
M  V30 43 Pb 1.6393 -4.6837 4.8447 0
M  V30 44 Pb 2.3820 -5.7419 4.2011 0
M  V30 45 Pb 3.5756 -5.0991 4.5804 0
M  V30 46 Ag -2.8590 -1.7503 4.1171 0
M  V30 47 Fe -0.9930 -3.1587 4.5524 0
M  V30 48 Ag 0.9096 -4.5288 4.9503 0
M  V30 49 Ag 0.3182 0.8498 -2.3828 0
M  V30 50 Fe 1.5282 0.6595 -0.3581 0
M  V30 51 Ag 2.8832 0.9168 1.5654 0
M  V30 52 Ag 3.4826 -6.5407 -2.0849 0
M  V30 53 Fe 2.4624 -5.1316 -3.7042 0
M  V30 54 Ag 1.2069 -3.7372 -5.1631 0
M  V30 55 Ag -2.1086 -2.6945 -5.4198 0
M  V30 56 Fe -3.8479 -1.5385 -4.3004 0
M  V30 57 Ag -5.4318 -0.3261 -3.0217 0
M  V30 58 Ag 4.6387 -7.1466 0.1772 0
M  V30 59 Fe 4.9769 -6.2676 2.3348 0
M  V30 60 Ag 4.2525 -5.2965 4.3537 0
M  V30 61 Ag -1.5651 5.2021 -2.0752 0
M  V30 62 Fe -3.4307 3.7492 -2.3344 0
M  V30 63 Ag -5.1671 2.1244 -2.3946 0
M  V30 64 Ag -2.1103 4.5509 1.5704 0
M  V30 65 Fe -3.7778 3.1064 0.7181 0
M  V30 66 Ag -5.3994 1.6424 -0.1865 0
M  V30 67 Ag 0.8270 6.2109 2.2824 0
M  V30 68 Fe 2.9368 5.3350 2.8624 0
M  V30 69 Ag 4.4743 3.5605 3.0438 0
M  V30 70 Ag -1.1948 4.5315 -0.0879 0
M  V30 71 Fe -2.3171 2.8470 1.1607 0
M  V30 72 Ag -3.5013 1.2146 2.4213 0
M  V30 73 Ag -1.1368 5.1521 3.3912 0
M  V30 74 Fe -1.9798 3.0829 4.1883 0
M  V30 75 Ag -2.7999 0.8668 4.4041 0
M  V30 76 Ag 4.0495 1.0347 3.7263 0
M  V30 77 Fe 3.6192 -1.1335 4.5952 0
M  V30 78 Ag 3.1352 -3.3437 5.3174 0
M  V30 79 Ag 1.4720 -7.2196 -1.2263 0
M  V30 80 Fe 0.2184 -5.9907 -2.8214 0
M  V30 81 Ag -0.7896 -4.5847 -4.4442 0
M  V30 82 Ba 2.5000 -7.6173 1.1050 0
M  V30 83 Ga 2.3874 -6.9561 2.4413 0
M  V30 84 Ba 2.2287 -6.3848 3.8140 0
M  V30 85 Ba -4.1964 -1.2813 2.0448 0
M  V30 86 Ga -4.8571 -1.0454 0.7408 0
M  V30 87 Ba -5.5149 -0.8044 -0.5636 0
M  V30 88 Ba 0.6521 3.2408 -2.1640 0
M  V30 89 Ga 0.3284 3.9742 -0.8981 0
M  V30 90 Ba 0.2616 4.8643 0.3132 0
M  V30 91 Ba 0.2285 1.1689 -4.9887 0
M  V30 92 Ga 0.0898 -0.2177 -5.4857 0
M  V30 93 Ba -0.0401 -1.5813 -6.0455 0
M  V30 94 Ba 0.6923 5.8320 -2.6460 0
M  V30 95 Ga 0.7355 4.8205 -3.7015 0
M  V30 96 Ba 0.6390 3.5686 -4.4524 0
M  V30 97 Ba 1.5674 4.9922 -0.4797 0
M  V30 98 Ga 2.4385 4.1190 0.3708 0
M  V30 99 Ba 3.4761 3.3768 1.1562 0
M  V30 END ATOM
M  V30 BEGIN BOND
M  V30 1 1 1 2
M  V30 2 1 1 3
M  V30 3 1 1 4
M  V30 4 1 1 5
M  V30 5 1 6 7
M  V30 6 1 6 8
M  V30 7 1 6 9
M  V30 8 1 6 10
M  V30 9 1 11 12
M  V30 10 1 11 13
M  V30 11 1 11 14
M  V30 12 1 11 15
M  V30 13 1 16 17
M  V30 14 1 16 18
M  V30 15 1 16 19
M  V30 16 1 16 20
M  V30 17 1 21 22
M  V30 18 1 21 23
M  V30 19 1 21 24
M  V30 20 1 21 25
M  V30 21 1 26 27
M  V30 22 1 26 28
M  V30 23 1 26 29
M  V30 24 1 26 30
M  V30 25 1 31 32
M  V30 26 1 31 33
M  V30 27 1 31 34
M  V30 28 1 31 35
M  V30 29 1 36 37
M  V30 30 1 36 38
M  V30 31 1 36 39
M  V30 32 1 36 40
M  V30 33 1 41 42
M  V30 34 1 41 43
M  V30 35 1 41 44
M  V30 36 1 41 45
M  V30 37 1 46 47
M  V30 38 1 47 48
M  V30 39 1 49 50
M  V30 40 1 50 51
M  V30 41 1 52 53
M  V30 42 1 53 54
M  V30 43 1 55 56
M  V30 44 1 56 57
M  V30 45 1 58 59
M  V30 46 1 59 60
M  V30 47 1 61 62
M  V30 48 1 62 63
M  V30 49 1 64 65
M  V30 50 1 65 66
M  V30 51 1 67 68
M  V30 52 1 68 69
M  V30 53 1 70 71
M  V30 54 1 71 72
M  V30 55 1 73 74
M  V30 56 1 74 75
M  V30 57 1 76 77
M  V30 58 1 77 78
M  V30 59 1 79 80
M  V30 60 1 80 81
M  V30 61 1 82 83
M  V30 62 1 83 84
M  V30 63 1 85 86
M  V30 64 1 86 87
M  V30 65 1 88 89
M  V30 66 1 89 90
M  V30 67 1 91 92
M  V30 68 1 92 93
M  V30 69 1 94 95
M  V30 70 1 95 96
M  V30 71 1 97 98
M  V30 72 1 98 99
M  V30 73 1 2 82
M  V30 74 1 3 58
M  V30 75 1 4 52
M  V30 76 1 5 79
M  V30 77 1 7 94
M  V30 78 1 8 70
M  V30 79 1 9 97
M  V30 80 1 10 61
M  V30 81 1 12 49
M  V30 82 1 13 88
M  V30 83 1 14 96
M  V30 84 1 15 91
M  V30 85 1 17 67
M  V30 86 1 18 90
M  V30 87 1 19 64
M  V30 88 1 20 73
M  V30 89 1 22 85
M  V30 90 1 23 72
M  V30 91 1 24 46
M  V30 92 1 25 75
M  V30 93 1 27 69
M  V30 94 1 28 51
M  V30 95 1 29 99
M  V30 96 1 30 76
M  V30 97 1 32 54
M  V30 98 1 33 55
M  V30 99 1 34 93
M  V30 100 1 35 81
M  V30 101 1 37 63
M  V30 102 1 38 66
M  V30 103 1 39 87
M  V30 104 1 40 57
M  V30 105 1 42 78
M  V30 106 1 43 48
M  V30 107 1 44 84
M  V30 108 1 45 60
M  V30 END BOND
M  V30 END CTAB
M  END

$$$$
