
     RDKit          3D

  0  0  0  0  0  0  0  0  0  0999 V3000
M  V30 BEGIN CTAB
M  V30 COUNTS 99 108 0 0 0
M  V30 BEGIN ATOM
M  V30 1 Pd 1.6569 -0.6578 -4.2425 0
M  V30 2 Pb 1.9360 -1.5976 -4.0401 0
M  V30 3 Pb 0.7245 -0.9330 -4.0004 0
M  V30 4 Pb 2.6023 -0.4126 -4.4614 0
M  V30 5 Pb 1.4019 0.2890 -4.4559 0
M  V30 6 Pd -7.7309 0.3636 -0.4792 0
M  V30 7 Pb -6.8877 0.2121 0.0401 0
M  V30 8 Pb -8.5514 0.5020 -1.0304 0
M  V30 9 Pb -7.5451 1.3428 -0.4880 0
M  V30 10 Pb -7.7912 -0.6238 -0.6798 0
M  V30 11 Pd 2.0754 -3.4241 6.1532 0
M  V30 12 Pb 1.4735 -4.1896 5.9471 0
M  V30 13 Pb 1.3064 -2.8820 6.4898 0
M  V30 14 Pb 2.6706 -2.6389 6.3227 0
M  V30 15 Pb 2.8391 -3.9365 5.7257 0
M  V30 16 Pd 3.8138 3.6041 3.7434 0
M  V30 17 Pb 3.9875 2.9066 4.4390 0
M  V30 18 Pb 4.5782 3.2358 3.1891 0
M  V30 19 Pb 3.0509 3.9617 4.2828 0
M  V30 20 Pb 3.6413 4.2739 3.0280 0
M  V30 21 Pd -1.4682 2.5943 3.8398 0
M  V30 22 Pb -2.0521 1.9659 3.3214 0
M  V30 23 Pb -1.5174 1.9684 4.6179 0
M  V30 24 Pb -0.8747 3.2070 4.3621 0
M  V30 25 Pb -1.3556 3.1897 3.0440 0
M  V30 26 Pd 5.8581 1.4115 -1.4532 0
M  V30 27 Pb 6.0177 1.6915 -0.4919 0
M  V30 28 Pb 6.2217 0.5066 -1.2350 0
M  V30 29 Pb 5.6956 1.1298 -2.4001 0
M  V30 30 Pb 5.4737 2.3110 -1.6353 0
M  V30 31 Pd 4.0186 -5.5140 1.0766 0
M  V30 32 Pb 3.7588 -5.5100 0.1116 0
M  V30 33 Pb 4.7919 -4.9292 0.8353 0
M  V30 34 Pb 4.2382 -5.4415 2.0643 0
M  V30 35 Pb 3.2337 -6.0780 1.3145 0
M  V30 36 Pd -2.1237 3.6603 -3.7061 0
M  V30 37 Pb -1.7231 4.0678 -2.8874 0
M  V30 38 Pb -2.5342 3.2050 -4.4966 0
M  V30 39 Pb -3.0175 3.8530 -3.2979 0
M  V30 40 Pb -1.2222 3.4532 -4.0864 0
M  V30 41 Pd -6.1237 -2.1422 -4.8609 0
M  V30 42 Pb -7.0312 -1.9513 -5.2297 0
M  V30 43 Pb -5.2231 -2.2494 -4.4385 0
M  V30 44 Pb -5.6972 -1.5930 -5.5751 0
M  V30 45 Pb -6.5587 -2.5195 -4.0301 0
M  V30 46 Ag -6.2445 0.0853 0.4080 0
M  V30 47 Fe -4.3782 0.8213 1.6832 0
M  V30 48 Ag -2.4782 1.4626 2.9597 0
M  V30 49 Ag 2.1288 -2.3056 -3.8796 0
M  V30 50 Fe 2.8471 -3.9124 -2.2845 0
M  V30 51 Ag 3.5674 -5.4341 -0.6089 0
M  V30 52 Ag -1.2223 3.6270 2.4492 0
M  V30 53 Fe -1.3323 4.0208 0.1102 0
M  V30 54 Ag -1.4805 4.3475 -2.2369 0
M  V30 55 Ag -9.0701 0.4979 -1.5630 0
M  V30 56 Fe -8.9405 -0.4879 -3.6996 0
M  V30 57 Ag -7.7259 -1.7029 -5.3120 0
M  V30 58 Ag 1.1185 -4.7701 5.6521 0
M  V30 59 Fe 1.5190 -5.9386 3.6441 0
M  V30 60 Ag 2.6457 -6.4053 1.6264 0
M  V30 61 Ag 3.5806 4.6669 2.4015 0
M  V30 62 Fe 4.2314 4.2068 0.1808 0
M  V30 63 Ag 5.1558 2.9808 -1.6104 0
M  V30 64 Ag 3.0876 -2.0254 6.4324 0
M  V30 65 Fe 3.6336 0.1734 5.7199 0
M  V30 66 Ag 4.1184 2.3638 4.9400 0
M  V30 67 Ag -7.3103 2.0388 -0.6250 0
M  V30 68 Fe -5.5306 3.1397 -1.7465 0
M  V30 69 Ag -3.6568 3.9938 -2.9290 0
M  V30 70 Ag -2.8201 2.8118 -5.0679 0
M  V30 71 Fe -4.0723 0.8955 -5.6949 0
M  V30 72 Ag -5.3570 -1.0772 -5.9947 0
M  V30 73 Ag 0.0656 -1.2239 -3.7839 0
M  V30 74 Fe -2.2485 -1.7232 -3.9936 0
M  V30 75 Ag -4.5567 -2.2804 -4.0945 0
M  V30 76 Ag 6.4737 -0.1701 -1.0349 0
M  V30 77 Fe 5.9629 -2.3368 -0.2099 0
M  V30 78 Ag 5.3462 -4.4749 0.6174 0
M  V30 79 Ag 0.7441 -2.4251 6.6804 0
M  V30 80 Fe -0.4545 -0.4848 6.0205 0
M  V30 81 Ag -1.5117 1.4651 5.1735 0
M  V30 82 Ba 2.4748 4.2234 4.6862 0
M  V30 83 Ga 1.0255 3.9488 4.7211 0
M  V30 84 Ba -0.4223 3.6657 4.7467 0
M  V30 85 Ba 5.1826 2.9668 2.8090 0
M  V30 86 Ga 5.6043 2.4339 1.4822 0
M  V30 87 Ba 6.1899 1.8848 0.2261 0
M  V30 88 Ba 3.4176 -4.3228 5.4091 0
M  V30 89 Ga 3.8647 -4.8350 4.0801 0
M  V30 90 Ba 4.4110 -5.3916 2.8071 0
M  V30 91 Ba -7.7996 -1.3500 -0.9060 0
M  V30 92 Ga -7.3460 -2.0527 -2.1405 0
M  V30 93 Ba -6.8881 -2.7429 -3.3805 0
M  V30 94 Ba 3.3103 -0.2217 -4.6231 0
M  V30 95 Ga 4.4415 0.3458 -3.8627 0
M  V30 96 Ba 5.5776 0.9132 -3.1096 0
M  V30 97 Ba 1.2990 1.0116 -4.6438 0
M  V30 98 Ga 0.3385 2.1234 -4.4878 0
M  V30 99 Ba -0.5542 3.2967 -4.3897 0
M  V30 END ATOM
M  V30 BEGIN BOND
M  V30 1 1 1 2
M  V30 2 1 1 3
M  V30 3 1 1 4
M  V30 4 1 1 5
M  V30 5 1 6 7
M  V30 6 1 6 8
M  V30 7 1 6 9
M  V30 8 1 6 10
M  V30 9 1 11 12
M  V30 10 1 11 13
M  V30 11 1 11 14
M  V30 12 1 11 15
M  V30 13 1 16 17
M  V30 14 1 16 18
M  V30 15 1 16 19
M  V30 16 1 16 20
M  V30 17 1 21 22
M  V30 18 1 21 23
M  V30 19 1 21 24
M  V30 20 1 21 25
M  V30 21 1 26 27
M  V30 22 1 26 28
M  V30 23 1 26 29
M  V30 24 1 26 30
M  V30 25 1 31 32
M  V30 26 1 31 33
M  V30 27 1 31 34
M  V30 28 1 31 35
M  V30 29 1 36 37
M  V30 30 1 36 38
M  V30 31 1 36 39
M  V30 32 1 36 40
M  V30 33 1 41 42
M  V30 34 1 41 43
M  V30 35 1 41 44
M  V30 36 1 41 45
M  V30 37 1 46 47
M  V30 38 1 47 48
M  V30 39 1 49 50
M  V30 40 1 50 51
M  V30 41 1 52 53
M  V30 42 1 53 54
M  V30 43 1 55 56
M  V30 44 1 56 57
M  V30 45 1 58 59
M  V30 46 1 59 60
M  V30 47 1 61 62
M  V30 48 1 62 63
M  V30 49 1 64 65
M  V30 50 1 65 66
M  V30 51 1 67 68
M  V30 52 1 68 69
M  V30 53 1 70 71
M  V30 54 1 71 72
M  V30 55 1 73 74
M  V30 56 1 74 75
M  V30 57 1 76 77
M  V30 58 1 77 78
M  V30 59 1 79 80
M  V30 60 1 80 81
M  V30 61 1 82 83
M  V30 62 1 83 84
M  V30 63 1 85 86
M  V30 64 1 86 87
M  V30 65 1 88 89
M  V30 66 1 89 90
M  V30 67 1 91 92
M  V30 68 1 92 93
M  V30 69 1 94 95
M  V30 70 1 95 96
M  V30 71 1 97 98
M  V30 72 1 98 99
M  V30 73 1 2 49
M  V30 74 1 3 73
M  V30 75 1 4 94
M  V30 76 1 5 97
M  V30 77 1 7 46
M  V30 78 1 8 55
M  V30 79 1 9 67
M  V30 80 1 10 91
M  V30 81 1 12 58
M  V30 82 1 13 79
M  V30 83 1 14 64
M  V30 84 1 15 88
M  V30 85 1 17 66
M  V30 86 1 18 85
M  V30 87 1 19 82
M  V30 88 1 20 61
M  V30 89 1 22 48
M  V30 90 1 23 81
M  V30 91 1 24 84
M  V30 92 1 25 52
M  V30 93 1 27 87
M  V30 94 1 28 76
M  V30 95 1 29 96
M  V30 96 1 30 63
M  V30 97 1 32 51
M  V30 98 1 33 78
M  V30 99 1 34 90
M  V30 100 1 35 60
M  V30 101 1 37 54
M  V30 102 1 38 70
M  V30 103 1 39 69
M  V30 104 1 40 99
M  V30 105 1 42 57
M  V30 106 1 43 75
M  V30 107 1 44 72
M  V30 108 1 45 93
M  V30 END BOND
M  V30 END CTAB
M  END

$$$$
