
     RDKit          3D

  0  0  0  0  0  0  0  0  0  0999 V3000
M  V30 BEGIN CTAB
M  V30 COUNTS 99 108 0 0 0
M  V30 BEGIN ATOM
M  V30 1 Pd -5.8543 -1.3028 9.1325 0
M  V30 2 Pb -5.2381 -0.5219 9.2072 0
M  V30 3 Pb -6.3752 -2.1220 8.9065 0
M  V30 4 Pb -6.3830 -0.7689 8.4737 0
M  V30 5 Pb -5.2284 -1.8741 9.6614 0
M  V30 6 Pd 5.7950 -0.5593 -6.3560 0
M  V30 7 Pb 5.3275 -0.4916 -7.2383 0
M  V30 8 Pb 6.1682 0.3557 -6.5121 0
M  V30 9 Pb 5.3834 -1.4541 -6.1985 0
M  V30 10 Pb 6.2491 -0.6287 -5.4640 0
M  V30 11 Pd -2.7415 -0.6427 -0.7901 0
M  V30 12 Pb -2.4047 -0.3028 -1.6736 0
M  V30 13 Pb -2.2212 -1.4821 -0.9292 0
M  V30 14 Pb -3.2191 0.2171 -0.6092 0
M  V30 15 Pb -3.1461 -1.0631 0.0236 0
M  V30 16 Pd 4.2755 -2.8311 -1.8487 0
M  V30 17 Pb 5.1361 -2.3626 -2.0576 0
M  V30 18 Pb 4.3463 -2.5986 -0.8750 0
M  V30 19 Pb 3.3851 -3.2478 -1.6830 0
M  V30 20 Pb 4.2143 -3.1095 -2.8062 0
M  V30 21 Pd -3.3590 2.4628 3.6664 0
M  V30 22 Pb -3.6070 2.4933 2.6955 0
M  V30 23 Pb -4.2987 2.2356 3.9233 0
M  V30 24 Pb -2.4041 2.6797 3.4625 0
M  V30 25 Pb -3.1487 2.4482 4.6441 0
M  V30 26 Pd 1.9420 0.2433 2.4648 0
M  V30 27 Pb 2.2164 0.8101 1.6955 0
M  V30 28 Pb 1.6522 -0.3203 3.2389 0
M  V30 29 Pb 1.3287 0.9979 2.7121 0
M  V30 30 Pb 2.6214 -0.4542 2.2202 0
M  V30 31 Pd 0.0553 3.1966 -4.4850 0
M  V30 32 Pb -0.4527 2.3504 -4.3047 0
M  V30 33 Pb -0.3159 3.2289 -5.4127 0
M  V30 34 Pb 0.5745 4.0245 -4.6933 0
M  V30 35 Pb 0.5529 3.1257 -3.6255 0
M  V30 36 Pd -3.3765 -3.9313 6.4538 0
M  V30 37 Pb -3.1761 -4.0363 7.4286 0
M  V30 38 Pb -3.6320 -3.7314 5.5072 0
M  V30 39 Pb -2.4466 -3.6006 6.2904 0
M  V30 40 Pb -4.3129 -4.2289 6.6471 0
M  V30 41 Pd 3.1851 3.3860 -8.1557 0
M  V30 42 Pb 2.1956 3.3526 -8.3110 0
M  V30 43 Pb 3.3213 2.5329 -8.6568 0
M  V30 44 Pb 3.0415 4.1982 -7.5943 0
M  V30 45 Pb 4.1612 3.3862 -7.9354 0
M  V30 46 Ag -6.6704 -0.3692 7.9088 0
M  V30 47 Fe -5.9829 0.8780 6.0086 0
M  V30 48 Ag -4.9665 2.0480 4.2092 0
M  V30 49 Ag 2.3678 1.2720 1.1318 0
M  V30 50 Fe 1.6820 2.1655 -0.9532 0
M  V30 51 Ag 1.0078 3.0722 -3.0363 0
M  V30 52 Ag -3.4818 -1.4474 0.5754 0
M  V30 53 Fe -3.6070 -2.4706 2.7165 0
M  V30 54 Ag -3.8732 -3.5376 4.8231 0
M  V30 55 Ag -1.7912 -2.0888 -1.0027 0
M  V30 56 Fe 0.4188 -2.8975 -1.2936 0
M  V30 57 Ag 2.6911 -3.5074 -1.5897 0
M  V30 58 Ag -4.7573 0.0435 9.1173 0
M  V30 59 Fe -3.8102 1.3298 7.3621 0
M  V30 60 Ag -3.0652 2.4183 5.3888 0
M  V30 61 Ag 1.4541 -0.7646 3.8103 0
M  V30 62 Fe -0.1647 -2.0449 4.9864 0
M  V30 63 Ag -1.7506 -3.3371 6.1938 0
M  V30 64 Ba -6.6555 -2.7625 8.6448 0
M  V30 65 Ga -5.9233 -3.6625 7.7378 0
M  V30 66 Ba -5.0150 -4.4053 6.8474 0
M  V30 67 Ba -1.6840 2.8623 3.3579 0
M  V30 68 Ga -0.3975 2.1833 3.0977 0
M  V30 69 Ba 0.9514 1.6372 2.8424 0
M  V30 70 Ba -0.4947 3.2467 -6.1409 0
M  V30 71 Ga 0.4189 3.2911 -7.3003 0
M  V30 72 Ba 1.4453 3.3352 -8.3614 0
M  V30 73 Ba 6.5768 -0.7021 -4.7895 0
M  V30 74 Ga 6.1846 -1.3428 -3.5154 0
M  V30 75 Ba 5.7604 -1.9935 -2.2567 0
M  V30 76 Ba 4.4095 -2.4753 -0.1343 0
M  V30 77 Ga 3.7512 -1.6914 0.9343 0
M  V30 78 Ba 3.1674 -0.9536 2.0763 0
M  V30 79 Ba 5.0586 -2.1114 -6.0537 0
M  V30 80 Ga 4.6128 -2.7398 -4.7990 0
M  V30 81 Ba 4.1820 -3.3306 -3.5211 0
M  V30 82 Ba -2.1961 -0.1435 -2.3812 0
M  V30 83 Ga -1.4923 0.8408 -3.2324 0
M  V30 84 Ba -0.8323 1.7035 -4.2372 0
M  V30 85 Ba 0.9833 4.6196 -4.8925 0
M  V30 86 Ga 1.9502 4.7682 -5.9924 0
M  V30 87 Ba 2.8849 4.7622 -7.1294 0
M  V30 88 Ba 6.4015 1.0538 -6.6593 0
M  V30 89 Ga 5.6830 2.2244 -7.1996 0
M  V30 90 Ba 4.8856 3.3411 -7.7435 0
M  V30 91 Ba 4.9720 -0.4121 -7.8946 0
M  V30 92 Ga 4.2044 0.7037 -8.4779 0
M  V30 93 Ba 3.4546 1.8702 -8.9789 0
M  V30 94 Ba -3.5546 0.8697 -0.4536 0
M  V30 95 Ga -3.6842 1.6949 0.7644 0
M  V30 96 Ba -3.8209 2.5298 1.9750 0
M  V30 97 Ba -4.7191 -2.3451 9.9440 0
M  V30 98 Ga -3.8560 -3.2405 9.1518 0
M  V30 99 Ba -3.1004 -4.0469 8.1753 0
M  V30 END ATOM
M  V30 BEGIN BOND
M  V30 1 1 1 2
M  V30 2 1 1 3
M  V30 3 1 1 4
M  V30 4 1 1 5
M  V30 5 1 6 7
M  V30 6 1 6 8
M  V30 7 1 6 9
M  V30 8 1 6 10
M  V30 9 1 11 12
M  V30 10 1 11 13
M  V30 11 1 11 14
M  V30 12 1 11 15
M  V30 13 1 16 17
M  V30 14 1 16 18
M  V30 15 1 16 19
M  V30 16 1 16 20
M  V30 17 1 21 22
M  V30 18 1 21 23
M  V30 19 1 21 24
M  V30 20 1 21 25
M  V30 21 1 26 27
M  V30 22 1 26 28
M  V30 23 1 26 29
M  V30 24 1 26 30
M  V30 25 1 31 32
M  V30 26 1 31 33
M  V30 27 1 31 34
M  V30 28 1 31 35
M  V30 29 1 36 37
M  V30 30 1 36 38
M  V30 31 1 36 39
M  V30 32 1 36 40
M  V30 33 1 41 42
M  V30 34 1 41 43
M  V30 35 1 41 44
M  V30 36 1 41 45
M  V30 37 1 46 47
M  V30 38 1 47 48
M  V30 39 1 49 50
M  V30 40 1 50 51
M  V30 41 1 52 53
M  V30 42 1 53 54
M  V30 43 1 55 56
M  V30 44 1 56 57
M  V30 45 1 58 59
M  V30 46 1 59 60
M  V30 47 1 61 62
M  V30 48 1 62 63
M  V30 49 1 64 65
M  V30 50 1 65 66
M  V30 51 1 67 68
M  V30 52 1 68 69
M  V30 53 1 70 71
M  V30 54 1 71 72
M  V30 55 1 73 74
M  V30 56 1 74 75
M  V30 57 1 76 77
M  V30 58 1 77 78
M  V30 59 1 79 80
M  V30 60 1 80 81
M  V30 61 1 82 83
M  V30 62 1 83 84
M  V30 63 1 85 86
M  V30 64 1 86 87
M  V30 65 1 88 89
M  V30 66 1 89 90
M  V30 67 1 91 92
M  V30 68 1 92 93
M  V30 69 1 94 95
M  V30 70 1 95 96
M  V30 71 1 97 98
M  V30 72 1 98 99
M  V30 73 1 2 58
M  V30 74 1 3 64
M  V30 75 1 4 46
M  V30 76 1 5 97
M  V30 77 1 7 91
M  V30 78 1 8 88
M  V30 79 1 9 79
M  V30 80 1 10 73
M  V30 81 1 12 82
M  V30 82 1 13 55
M  V30 83 1 14 94
M  V30 84 1 15 52
M  V30 85 1 17 75
M  V30 86 1 18 76
M  V30 87 1 19 57
M  V30 88 1 20 81
M  V30 89 1 22 96
M  V30 90 1 23 48
M  V30 91 1 24 67
M  V30 92 1 25 60
M  V30 93 1 27 49
M  V30 94 1 28 61
M  V30 95 1 29 69
M  V30 96 1 30 78
M  V30 97 1 32 84
M  V30 98 1 33 70
M  V30 99 1 34 85
M  V30 100 1 35 51
M  V30 101 1 37 99
M  V30 102 1 38 54
M  V30 103 1 39 63
M  V30 104 1 40 66
M  V30 105 1 42 72
M  V30 106 1 43 93
M  V30 107 1 44 87
M  V30 108 1 45 90
M  V30 END BOND
M  V30 END CTAB
M  END

$$$$
