
     RDKit          3D

  0  0  0  0  0  0  0  0  0  0999 V3000
M  V30 BEGIN CTAB
M  V30 COUNTS 99 108 0 0 0
M  V30 BEGIN ATOM
M  V30 1 Pd 5.0241 3.3474 3.2936 0
M  V30 2 Pb 4.0807 3.5244 3.0196 0
M  V30 3 Pb 5.9859 3.1528 3.4962 0
M  V30 4 Pb 5.3310 3.9967 2.6000 0
M  V30 5 Pb 4.7192 2.6576 3.9526 0
M  V30 6 Pd 8.1263 2.0298 -0.1898 0
M  V30 7 Pb 8.4681 1.0918 -0.1980 0
M  V30 8 Pb 7.7485 2.9534 -0.1632 0
M  V30 9 Pb 8.4760 2.1739 0.7360 0
M  V30 10 Pb 7.6505 1.8371 -1.0480 0
M  V30 11 Pd -2.8727 -3.1259 -2.9086 0
M  V30 12 Pb -3.2741 -2.8518 -3.7862 0
M  V30 13 Pb -2.4409 -3.3226 -2.0230 0
M  V30 14 Pb -3.6752 -3.6700 -2.6365 0
M  V30 15 Pb -2.0411 -2.6880 -3.2444 0
M  V30 16 Pd -7.4732 -3.2529 0.2781 0
M  V30 17 Pb -7.1476 -3.6655 1.1249 0
M  V30 18 Pb -7.7767 -2.7949 -0.5501 0
M  V30 19 Pb -7.8409 -2.4814 0.8178 0
M  V30 20 Pb -7.0114 -3.9348 -0.2895 0
M  V30 21 Pd 0.3890 1.1808 -2.0667 0
M  V30 22 Pb 0.0177 1.8386 -2.7212 0
M  V30 23 Pb 0.7268 0.4877 -1.4318 0
M  V30 24 Pb 0.3643 0.4791 -2.7703 0
M  V30 25 Pb 0.4205 1.8592 -1.3348 0
M  V30 26 Pd 5.0910 -1.7791 -0.4282 0
M  V30 27 Pb 6.0830 -1.8938 -0.4212 0
M  V30 28 Pb 4.9964 -2.3878 0.3571 0
M  V30 29 Pb 5.1997 -1.1317 -1.1852 0
M  V30 30 Pb 4.1008 -1.6428 -0.3745 0
M  V30 31 Pd -4.4594 1.5624 -4.3166 0
M  V30 32 Pb -3.5783 2.0194 -4.4510 0
M  V30 33 Pb -4.6964 2.2273 -3.6071 0
M  V30 34 Pb -4.2393 0.8037 -4.9331 0
M  V30 35 Pb -5.3403 1.1205 -4.1829 0
M  V30 36 Pd 1.6886 -1.1411 3.2871 0
M  V30 37 Pb 1.0131 -0.4104 3.3835 0
M  V30 38 Pb 1.0632 -1.6876 2.7189 0
M  V30 39 Pb 2.3028 -0.6246 3.8899 0
M  V30 40 Pb 2.3766 -1.8612 3.1943 0
M  V30 41 Pd -5.5467 1.3073 3.0066 0
M  V30 42 Pb -6.4328 0.8962 2.7463 0
M  V30 43 Pb -5.4524 0.5906 3.6928 0
M  V30 44 Pb -5.6074 1.9722 2.2596 0
M  V30 45 Pb -4.6294 1.6325 3.2253 0
M  V30 46 Ag 0.5270 0.1536 3.4732 0
M  V30 47 Fe -1.6825 1.0199 3.4313 0
M  V30 48 Ag -3.9181 1.8144 3.3661 0
M  V30 49 Ag -4.8866 2.6559 -3.0204 0
M  V30 50 Fe -5.2756 2.6443 -0.6756 0
M  V30 51 Ag -5.6194 2.4348 1.6669 0
M  V30 52 Ag 3.3953 3.6447 2.7448 0
M  V30 53 Fe 1.8630 3.0517 1.0330 0
M  V30 54 Ag 0.4777 2.3230 -0.7503 0
M  V30 55 Ag -6.8838 -3.7851 1.8086 0
M  V30 56 Fe -6.0375 -2.2186 3.3558 0
M  V30 57 Ag -5.4251 -0.0530 4.0628 0
M  V30 58 Ag -7.9496 -2.4050 -1.1591 0
M  V30 59 Fe -7.0841 -0.8198 -2.6890 0
M  V30 60 Ag -5.9784 0.7550 -4.0676 0
M  V30 61 Ag -2.1220 -3.4512 -1.3511 0
M  V30 62 Fe -0.7467 -2.7520 0.4626 0
M  V30 63 Ag 0.6086 -2.1451 2.3239 0
M  V30 64 Ba -4.2297 -4.1510 -2.4510 0
M  V30 65 Ga -5.4322 -4.2466 -1.5926 0
M  V30 66 Ba -6.6436 -4.3956 -0.7543 0
M  V30 67 Ba 7.2334 1.6344 -1.6378 0
M  V30 68 Ga 6.2726 0.5182 -1.7476 0
M  V30 69 Ba 5.3442 -0.6304 -1.7269 0
M  V30 70 Ba 6.7211 3.0163 3.5757 0
M  V30 71 Ga 7.7350 2.6474 2.5667 0
M  V30 72 Ba 8.6421 2.2811 1.4600 0
M  V30 73 Ba -8.1073 -1.8783 1.1978 0
M  V30 74 Ga -7.5660 -0.6688 1.8779 0
M  V30 75 Ba -7.0937 0.5607 2.5735 0
M  V30 76 Ba 5.5859 4.4349 2.0498 0
M  V30 77 Ga 6.5100 4.1055 0.9527 0
M  V30 78 Ba 7.4412 3.6306 -0.0832 0
M  V30 79 Ba 0.9448 -0.0616 -0.9719 0
M  V30 80 Ga 2.1861 -0.7888 -0.6455 0
M  V30 81 Ba 3.3636 -1.5810 -0.2435 0
M  V30 82 Ba 4.4961 2.1284 4.4373 0
M  V30 83 Ga 3.6151 0.9424 4.3805 0
M  V30 84 Ba 2.7451 -0.2530 4.3738 0
M  V30 85 Ba 8.6637 0.3700 -0.2199 0
M  V30 86 Ga 7.8057 -0.8228 -0.3102 0
M  V30 87 Ba 6.8306 -1.9219 -0.4003 0
M  V30 88 Ba -3.4875 -2.5787 -4.4560 0
M  V30 89 Ga -3.8231 -1.2148 -4.9254 0
M  V30 90 Ba -4.1522 0.1707 -5.3319 0
M  V30 91 Ba 4.8805 -2.8050 0.9670 0
M  V30 92 Ga 3.9048 -2.6389 2.0586 0
M  V30 93 Ba 2.8970 -2.3943 3.1056 0
M  V30 94 Ba -0.2779 2.2900 -3.2416 0
M  V30 95 Ga -1.6028 2.3503 -3.8896 0
M  V30 96 Ba -2.9326 2.3966 -4.5283 0
M  V30 97 Ba -1.4335 -2.3981 -3.5719 0
M  V30 98 Ga -0.5487 -1.2346 -3.4155 0
M  V30 99 Ba 0.3426 -0.0753 -3.2659 0
M  V30 END ATOM
M  V30 BEGIN BOND
M  V30 1 1 1 2
M  V30 2 1 1 3
M  V30 3 1 1 4
M  V30 4 1 1 5
M  V30 5 1 6 7
M  V30 6 1 6 8
M  V30 7 1 6 9
M  V30 8 1 6 10
M  V30 9 1 11 12
M  V30 10 1 11 13
M  V30 11 1 11 14
M  V30 12 1 11 15
M  V30 13 1 16 17
M  V30 14 1 16 18
M  V30 15 1 16 19
M  V30 16 1 16 20
M  V30 17 1 21 22
M  V30 18 1 21 23
M  V30 19 1 21 24
M  V30 20 1 21 25
M  V30 21 1 26 27
M  V30 22 1 26 28
M  V30 23 1 26 29
M  V30 24 1 26 30
M  V30 25 1 31 32
M  V30 26 1 31 33
M  V30 27 1 31 34
M  V30 28 1 31 35
M  V30 29 1 36 37
M  V30 30 1 36 38
M  V30 31 1 36 39
M  V30 32 1 36 40
M  V30 33 1 41 42
M  V30 34 1 41 43
M  V30 35 1 41 44
M  V30 36 1 41 45
M  V30 37 1 46 47
M  V30 38 1 47 48
M  V30 39 1 49 50
M  V30 40 1 50 51
M  V30 41 1 52 53
M  V30 42 1 53 54
M  V30 43 1 55 56
M  V30 44 1 56 57
M  V30 45 1 58 59
M  V30 46 1 59 60
M  V30 47 1 61 62
M  V30 48 1 62 63
M  V30 49 1 64 65
M  V30 50 1 65 66
M  V30 51 1 67 68
M  V30 52 1 68 69
M  V30 53 1 70 71
M  V30 54 1 71 72
M  V30 55 1 73 74
M  V30 56 1 74 75
M  V30 57 1 76 77
M  V30 58 1 77 78
M  V30 59 1 79 80
M  V30 60 1 80 81
M  V30 61 1 82 83
M  V30 62 1 83 84
M  V30 63 1 85 86
M  V30 64 1 86 87
M  V30 65 1 88 89
M  V30 66 1 89 90
M  V30 67 1 91 92
M  V30 68 1 92 93
M  V30 69 1 94 95
M  V30 70 1 95 96
M  V30 71 1 97 98
M  V30 72 1 98 99
M  V30 73 1 2 52
M  V30 74 1 3 70
M  V30 75 1 4 76
M  V30 76 1 5 82
M  V30 77 1 7 85
M  V30 78 1 8 78
M  V30 79 1 9 72
M  V30 80 1 10 67
M  V30 81 1 12 88
M  V30 82 1 13 61
M  V30 83 1 14 64
M  V30 84 1 15 97
M  V30 85 1 17 55
M  V30 86 1 18 58
M  V30 87 1 19 73
M  V30 88 1 20 66
M  V30 89 1 22 94
M  V30 90 1 23 79
M  V30 91 1 24 99
M  V30 92 1 25 54
M  V30 93 1 27 87
M  V30 94 1 28 91
M  V30 95 1 29 69
M  V30 96 1 30 81
M  V30 97 1 32 96
M  V30 98 1 33 49
M  V30 99 1 34 90
M  V30 100 1 35 60
M  V30 101 1 37 46
M  V30 102 1 38 63
M  V30 103 1 39 84
M  V30 104 1 40 93
M  V30 105 1 42 75
M  V30 106 1 43 57
M  V30 107 1 44 51
M  V30 108 1 45 48
M  V30 END BOND
M  V30 END CTAB
M  END

$$$$
