
     RDKit          3D

  0  0  0  0  0  0  0  0  0  0999 V3000
M  V30 BEGIN CTAB
M  V30 COUNTS 99 108 0 0 0
M  V30 BEGIN ATOM
M  V30 1 Pd -3.0818 2.6823 -5.7118 0
M  V30 2 Pb -3.5935 2.4699 -4.8734 0
M  V30 3 Pb -2.4677 3.3097 -5.2021 0
M  V30 4 Pb -3.5328 1.9602 -6.2365 0
M  V30 5 Pb -2.6221 2.9432 -6.5558 0
M  V30 6 Pd -0.9057 -5.0187 -0.8590 0
M  V30 7 Pb -1.7068 -4.9720 -0.2491 0
M  V30 8 Pb -0.2748 -4.9701 -0.0513 0
M  V30 9 Pb -0.1313 -5.0762 -1.4723 0
M  V30 10 Pb -1.4598 -5.1602 -1.6816 0
M  V30 11 Pd 3.4103 3.3569 1.0930 0
M  V30 12 Pb 2.8542 2.8429 0.4383 0
M  V30 13 Pb 4.1882 2.7534 0.9313 0
M  V30 14 Pb 2.6031 3.9125 1.3091 0
M  V30 15 Pb 3.9631 3.7382 1.8330 0
M  V30 16 Pd -2.5175 -2.8356 -6.0139 0
M  V30 17 Pb -2.3365 -3.6462 -5.4517 0
M  V30 18 Pb -1.5378 -2.6444 -6.1272 0
M  V30 19 Pb -3.4690 -3.0067 -5.7953 0
M  V30 20 Pb -2.8211 -2.0382 -6.5442 0
M  V30 21 Pd 2.0915 2.3370 -4.3894 0
M  V30 22 Pb 2.2692 2.6653 -5.3134 0
M  V30 23 Pb 1.8958 2.0090 -3.4671 0
M  V30 24 Pb 2.4139 1.4332 -4.6634 0
M  V30 25 Pb 1.4824 3.1251 -4.2221 0
M  V30 26 Pd -2.1100 3.4007 5.8559 0
M  V30 27 Pb -2.0228 2.7955 6.6483 0
M  V30 28 Pb -2.7404 2.7523 5.4302 0
M  V30 29 Pb -1.4545 4.0013 6.3056 0
M  V30 30 Pb -2.0020 3.9358 5.0183 0
M  V30 31 Pd 3.9882 1.4015 7.8912 0
M  V30 32 Pb 3.6617 2.3130 8.1223 0
M  V30 33 Pb 4.6702 1.8489 7.3153 0
M  V30 34 Pb 4.2258 0.4829 7.5694 0
M  V30 35 Pb 3.1712 1.0434 8.3450 0
M  V30 36 Pd 4.3341 -3.5444 1.8835 0
M  V30 37 Pb 4.4389 -3.7658 0.9249 0
M  V30 38 Pb 5.0880 -2.9041 1.7719 0
M  V30 39 Pb 4.3126 -3.3432 2.8660 0
M  V30 40 Pb 3.4530 -4.0615 1.9172 0
M  V30 41 Pd -5.0909 -1.6364 0.4105 0
M  V30 42 Pb -4.7991 -2.5243 0.7748 0
M  V30 43 Pb -4.9243 -1.1812 1.2850 0
M  V30 44 Pb -5.3745 -2.0763 -0.4340 0
M  V30 45 Pb -5.2739 -0.7564 -0.0305 0
M  V30 46 Ag -4.1296 -3.1237 -5.4836 0
M  V30 47 Fe -5.0640 -2.8204 -3.3340 0
M  V30 48 Ag -5.6088 -2.3614 -1.0797 0
M  V30 49 Ag -3.9979 2.3621 -4.2450 0
M  V30 50 Fe -4.6815 1.1239 -2.3321 0
M  V30 51 Ag -5.3608 -0.1201 -0.4213 0
M  V30 52 Ag -2.1678 3.1289 -7.1118 0
M  V30 53 Fe 0.1814 3.2115 -7.1609 0
M  V30 54 Ag 2.2083 2.8971 -6.0137 0
M  V30 55 Ag 1.9572 4.2672 1.4671 0
M  V30 56 Fe 0.0408 4.3791 2.8707 0
M  V30 57 Ag -1.7743 4.3036 4.4048 0
M  V30 58 Ag 0.4985 -5.0846 -1.8535 0
M  V30 59 Fe 2.7170 -4.5942 -1.2596 0
M  V30 60 Ag 4.4302 -3.9502 0.2120 0
M  V30 61 Ag -0.9111 4.3563 6.6720 0
M  V30 62 Fe 1.2444 3.9098 7.5430 0
M  V30 63 Ag 3.3140 2.9667 8.1994 0
M  V30 64 Ag 4.7568 2.2690 0.8972 0
M  V30 65 Fe 5.3478 -0.0035 1.2210 0
M  V30 66 Ag 5.5396 -2.3322 1.6173 0
M  V30 67 Ag 4.4217 3.8670 2.4122 0
M  V30 68 Fe 4.8768 3.1716 4.6370 0
M  V30 69 Ag 5.0450 2.2830 6.8330 0
M  V30 70 Ag -0.7966 -2.5016 -6.1317 0
M  V30 71 Fe 0.9478 -0.9823 -5.5783 0
M  V30 72 Ag 2.4604 0.7367 -4.9362 0
M  V30 73 Ag -3.2037 2.2249 5.1669 0
M  V30 74 Fe -3.9852 0.7219 3.5025 0
M  V30 75 Ag -4.8838 -0.8319 1.9474 0
M  V30 76 Ag 4.3316 -0.2137 7.3063 0
M  V30 77 Fe 4.3525 -1.7032 5.4522 0
M  V30 78 Ag 4.3727 -3.1986 3.6030 0
M  V30 79 Ag -1.7995 2.3381 7.2007 0
M  V30 80 Fe 0.2380 1.4766 8.0695 0
M  V30 81 Ag 2.4797 0.8837 8.5908 0
M  V30 82 Ba -1.9631 3.7610 -4.8439 0
M  V30 83 Ga -0.5126 3.7041 -4.4859 0
M  V30 84 Ba 0.9375 3.6497 -4.1263 0
M  V30 85 Ba -3.7610 1.4056 -6.6890 0
M  V30 86 Ga -3.4586 -0.0403 -6.7849 0
M  V30 87 Ba -3.1768 -1.4871 -6.9194 0
M  V30 88 Ba -2.2919 -4.9607 0.2323 0
M  V30 89 Ga -3.4141 -4.0662 0.6055 0
M  V30 90 Ba -4.5476 -3.1968 1.0036 0
M  V30 91 Ba 2.4210 2.3976 0.0157 0
M  V30 92 Ga 2.1027 2.1184 -1.3969 0
M  V30 93 Ba 1.7229 1.7711 -2.7791 0
M  V30 94 Ba 0.1747 -5.0176 0.5785 0
M  V30 95 Ga 1.5020 -4.6653 1.1891 0
M  V30 96 Ba 2.7654 -4.4102 1.9625 0
M  V30 97 Ba -1.7748 -5.3466 -2.3394 0
M  V30 98 Ga -2.0390 -4.7520 -3.6684 0
M  V30 99 Ba -2.3488 -4.2737 -5.0338 0
M  V30 END ATOM
M  V30 BEGIN BOND
M  V30 1 1 1 2
M  V30 2 1 1 3
M  V30 3 1 1 4
M  V30 4 1 1 5
M  V30 5 1 6 7
M  V30 6 1 6 8
M  V30 7 1 6 9
M  V30 8 1 6 10
M  V30 9 1 11 12
M  V30 10 1 11 13
M  V30 11 1 11 14
M  V30 12 1 11 15
M  V30 13 1 16 17
M  V30 14 1 16 18
M  V30 15 1 16 19
M  V30 16 1 16 20
M  V30 17 1 21 22
M  V30 18 1 21 23
M  V30 19 1 21 24
M  V30 20 1 21 25
M  V30 21 1 26 27
M  V30 22 1 26 28
M  V30 23 1 26 29
M  V30 24 1 26 30
M  V30 25 1 31 32
M  V30 26 1 31 33
M  V30 27 1 31 34
M  V30 28 1 31 35
M  V30 29 1 36 37
M  V30 30 1 36 38
M  V30 31 1 36 39
M  V30 32 1 36 40
M  V30 33 1 41 42
M  V30 34 1 41 43
M  V30 35 1 41 44
M  V30 36 1 41 45
M  V30 37 1 46 47
M  V30 38 1 47 48
M  V30 39 1 49 50
M  V30 40 1 50 51
M  V30 41 1 52 53
M  V30 42 1 53 54
M  V30 43 1 55 56
M  V30 44 1 56 57
M  V30 45 1 58 59
M  V30 46 1 59 60
M  V30 47 1 61 62
M  V30 48 1 62 63
M  V30 49 1 64 65
M  V30 50 1 65 66
M  V30 51 1 67 68
M  V30 52 1 68 69
M  V30 53 1 70 71
M  V30 54 1 71 72
M  V30 55 1 73 74
M  V30 56 1 74 75
M  V30 57 1 76 77
M  V30 58 1 77 78
M  V30 59 1 79 80
M  V30 60 1 80 81
M  V30 61 1 82 83
M  V30 62 1 83 84
M  V30 63 1 85 86
M  V30 64 1 86 87
M  V30 65 1 88 89
M  V30 66 1 89 90
M  V30 67 1 91 92
M  V30 68 1 92 93
M  V30 69 1 94 95
M  V30 70 1 95 96
M  V30 71 1 97 98
M  V30 72 1 98 99
M  V30 73 1 2 49
M  V30 74 1 3 82
M  V30 75 1 4 85
M  V30 76 1 5 52
M  V30 77 1 7 88
M  V30 78 1 8 94
M  V30 79 1 9 58
M  V30 80 1 10 97
M  V30 81 1 12 91
M  V30 82 1 13 64
M  V30 83 1 14 55
M  V30 84 1 15 67
M  V30 85 1 17 99
M  V30 86 1 18 70
M  V30 87 1 19 46
M  V30 88 1 20 87
M  V30 89 1 22 54
M  V30 90 1 23 93
M  V30 91 1 24 72
M  V30 92 1 25 84
M  V30 93 1 27 79
M  V30 94 1 28 73
M  V30 95 1 29 61
M  V30 96 1 30 57
M  V30 97 1 32 63
M  V30 98 1 33 69
M  V30 99 1 34 76
M  V30 100 1 35 81
M  V30 101 1 37 60
M  V30 102 1 38 66
M  V30 103 1 39 78
M  V30 104 1 40 96
M  V30 105 1 42 90
M  V30 106 1 43 75
M  V30 107 1 44 48
M  V30 108 1 45 51
M  V30 END BOND
M  V30 END CTAB
M  END

$$$$
