
     RDKit          3D

  0  0  0  0  0  0  0  0  0  0999 V3000
M  V30 BEGIN CTAB
M  V30 COUNTS 99 108 0 0 0
M  V30 BEGIN ATOM
M  V30 1 Pd -0.4980 -3.1505 -3.2485 0
M  V30 2 Pb -1.4117 -2.9248 -3.5897 0
M  V30 3 Pb -0.9607 -3.7756 -2.6173 0
M  V30 4 Pb -0.0361 -2.6159 -3.9624 0
M  V30 5 Pb 0.3993 -3.3427 -2.8474 0
M  V30 6 Pd 0.5044 -4.0454 7.1685 0
M  V30 7 Pb 0.3445 -3.0612 7.0894 0
M  V30 8 Pb -0.4714 -4.2261 7.0246 0
M  V30 9 Pb 1.4995 -3.9393 7.1714 0
M  V30 10 Pb 0.6246 -5.0313 7.2372 0
M  V30 11 Pd -2.4408 4.9329 0.1635 0
M  V30 12 Pb -2.7085 4.9516 -0.7970 0
M  V30 13 Pb -2.2184 4.9436 1.1423 0
M  V30 14 Pb -2.1357 5.8848 0.0764 0
M  V30 15 Pb -2.7604 3.9813 0.2224 0
M  V30 16 Pd 1.5814 7.3957 -2.4166 0
M  V30 17 Pb 0.8069 7.7619 -1.8984 0
M  V30 18 Pb 1.1247 7.5304 -3.2959 0
M  V30 19 Pb 2.0436 7.2001 -1.5557 0
M  V30 20 Pb 2.3202 6.9608 -2.9309 0
M  V30 21 Pd 1.3166 3.0923 3.9358 0
M  V30 22 Pb 0.8814 2.4399 4.5559 0
M  V30 23 Pb 0.4851 3.6500 3.9239 0
M  V30 24 Pb 1.7795 3.7695 3.3677 0
M  V30 25 Pb 2.1315 2.5150 3.9094 0
M  V30 26 Pd 1.2108 2.9225 -7.8053 0
M  V30 27 Pb 0.9066 3.8744 -7.8098 0
M  V30 28 Pb 0.3096 2.6243 -8.1052 0
M  V30 29 Pb 1.4555 1.9664 -7.6437 0
M  V30 30 Pb 2.0575 3.2460 -7.3867 0
M  V30 31 Pd -3.9594 1.2152 -3.4690 0
M  V30 32 Pb -3.9935 0.2177 -3.5467 0
M  V30 33 Pb -3.9484 1.2513 -4.4653 0
M  V30 34 Pb -3.9195 1.2011 -2.4658 0
M  V30 35 Pb -3.8938 2.2104 -3.4475 0
M  V30 36 Pd 3.9671 -4.0556 3.0434 0
M  V30 37 Pb 4.1842 -3.0874 3.1630 0
M  V30 38 Pb 3.7440 -5.0193 2.8836 0
M  V30 39 Pb 4.0195 -4.1443 4.0435 0
M  V30 40 Pb 3.9009 -3.9458 2.0504 0
M  V30 41 Pd -1.7028 -8.3602 2.5628 0
M  V30 42 Pb -2.4189 -7.9233 3.1063 0
M  V30 43 Pb -2.0246 -7.9029 1.7346 0
M  V30 44 Pb -0.8326 -8.5981 2.1408 0
M  V30 45 Pb -1.3291 -8.7183 3.4122 0
M  V30 46 Ag 0.1733 -2.3332 7.0290 0
M  V30 47 Fe 0.3983 -0.1957 6.0181 0
M  V30 48 Ag 0.5766 1.9662 5.0510 0
M  V30 49 Ag 2.7274 2.0634 3.8678 0
M  V30 50 Fe 3.5640 -0.1386 3.5723 0
M  V30 51 Ag 4.3390 -2.3622 3.2712 0
M  V30 52 Ag 2.3686 7.0162 -0.9093 0
M  V30 53 Fe 2.2782 5.6661 1.0385 0
M  V30 54 Ag 2.1345 4.2901 2.9649 0
M  V30 55 Ag 0.8484 7.5426 -3.9930 0
M  V30 56 Fe 0.6759 6.1952 -5.9407 0
M  V30 57 Ag 0.6869 4.5791 -7.6803 0
M  V30 58 Ag 0.6359 -5.7754 7.2165 0
M  V30 59 Fe -0.0937 -7.5312 5.8090 0
M  V30 60 Ag -1.0011 -8.8484 4.0663 0
M  V30 61 Ag -1.1606 -4.4519 6.8227 0
M  V30 62 Fe -2.2105 -5.9268 5.2816 0
M  V30 63 Ag -2.7957 -7.5008 3.5988 0
M  V30 64 Ag 2.8058 6.5902 -3.3651 0
M  V30 65 Fe 2.9040 5.0682 -5.1837 0
M  V30 66 Ag 2.6106 3.5615 -6.9937 0
M  V30 67 Ag 0.3508 -2.2876 -4.5211 0
M  V30 68 Fe 0.9603 -0.5132 -5.9828 0
M  V30 69 Ag 1.5812 1.2519 -7.4511 0
M  V30 70 Ag 1.0785 -3.4439 -2.5421 0
M  V30 71 Fe 2.4600 -3.6745 -0.6220 0
M  V30 72 Ag 3.8347 -3.9047 1.3031 0
M  V30 73 Ag 3.5527 -5.7113 2.6579 0
M  V30 74 Fe 1.8215 -7.2855 2.2481 0
M  V30 75 Ag -0.1061 -8.6455 1.9733 0
M  V30 76 Ag -1.3649 -4.2749 -2.2264 0
M  V30 77 Fe -1.7648 -5.8888 -0.5291 0
M  V30 78 Ag -2.2518 -7.5106 1.1378 0
M  V30 79 Ag -0.3946 2.4019 -8.2024 0
M  V30 80 Fe -2.2630 1.8060 -6.8740 0
M  V30 81 Ag -3.8637 1.2901 -5.2058 0
M  V30 82 Ba -2.1296 -2.7915 -3.7680 0
M  V30 83 Ga -3.0555 -1.6412 -3.7242 0
M  V30 84 Ba -4.0155 -0.5187 -3.6955 0
M  V30 85 Ba -3.0105 3.2688 0.2536 0
M  V30 86 Ga -3.4388 2.2477 -0.7316 0
M  V30 87 Ba -3.8679 1.2237 -1.7134 0
M  V30 88 Ba -2.9351 4.9756 -1.5087 0
M  V30 89 Ga -3.3794 3.9675 -2.4841 0
M  V30 90 Ba -3.8229 2.9547 -3.4550 0
M  V30 91 Ba -1.9247 6.6024 -0.0135 0
M  V30 92 Ga -0.8490 7.3053 -0.7448 0
M  V30 93 Ba 0.2305 7.9995 -1.4788 0
M  V30 94 Ba 2.2491 -3.9388 7.1149 0
M  V30 95 Ga 3.1668 -4.0339 5.9570 0
M  V30 96 Ba 4.0810 -4.1321 4.7966 0
M  V30 97 Ba -2.0882 4.9851 1.8837 0
M  V30 98 Ga -1.0986 4.5085 2.8732 0
M  V30 99 Ba -0.1429 4.0621 3.9091 0
M  V30 END ATOM
M  V30 BEGIN BOND
M  V30 1 1 1 2
M  V30 2 1 1 3
M  V30 3 1 1 4
M  V30 4 1 1 5
M  V30 5 1 6 7
M  V30 6 1 6 8
M  V30 7 1 6 9
M  V30 8 1 6 10
M  V30 9 1 11 12
M  V30 10 1 11 13
M  V30 11 1 11 14
M  V30 12 1 11 15
M  V30 13 1 16 17
M  V30 14 1 16 18
M  V30 15 1 16 19
M  V30 16 1 16 20
M  V30 17 1 21 22
M  V30 18 1 21 23
M  V30 19 1 21 24
M  V30 20 1 21 25
M  V30 21 1 26 27
M  V30 22 1 26 28
M  V30 23 1 26 29
M  V30 24 1 26 30
M  V30 25 1 31 32
M  V30 26 1 31 33
M  V30 27 1 31 34
M  V30 28 1 31 35
M  V30 29 1 36 37
M  V30 30 1 36 38
M  V30 31 1 36 39
M  V30 32 1 36 40
M  V30 33 1 41 42
M  V30 34 1 41 43
M  V30 35 1 41 44
M  V30 36 1 41 45
M  V30 37 1 46 47
M  V30 38 1 47 48
M  V30 39 1 49 50
M  V30 40 1 50 51
M  V30 41 1 52 53
M  V30 42 1 53 54
M  V30 43 1 55 56
M  V30 44 1 56 57
M  V30 45 1 58 59
M  V30 46 1 59 60
M  V30 47 1 61 62
M  V30 48 1 62 63
M  V30 49 1 64 65
M  V30 50 1 65 66
M  V30 51 1 67 68
M  V30 52 1 68 69
M  V30 53 1 70 71
M  V30 54 1 71 72
M  V30 55 1 73 74
M  V30 56 1 74 75
M  V30 57 1 76 77
M  V30 58 1 77 78
M  V30 59 1 79 80
M  V30 60 1 80 81
M  V30 61 1 82 83
M  V30 62 1 83 84
M  V30 63 1 85 86
M  V30 64 1 86 87
M  V30 65 1 88 89
M  V30 66 1 89 90
M  V30 67 1 91 92
M  V30 68 1 92 93
M  V30 69 1 94 95
M  V30 70 1 95 96
M  V30 71 1 97 98
M  V30 72 1 98 99
M  V30 73 1 2 82
M  V30 74 1 3 76
M  V30 75 1 4 67
M  V30 76 1 5 70
M  V30 77 1 7 46
M  V30 78 1 8 61
M  V30 79 1 9 94
M  V30 80 1 10 58
M  V30 81 1 12 88
M  V30 82 1 13 97
M  V30 83 1 14 91
M  V30 84 1 15 85
M  V30 85 1 17 93
M  V30 86 1 18 55
M  V30 87 1 19 52
M  V30 88 1 20 64
M  V30 89 1 22 48
M  V30 90 1 23 99
M  V30 91 1 24 54
M  V30 92 1 25 49
M  V30 93 1 27 57
M  V30 94 1 28 79
M  V30 95 1 29 69
M  V30 96 1 30 66
M  V30 97 1 32 84
M  V30 98 1 33 81
M  V30 99 1 34 87
M  V30 100 1 35 90
M  V30 101 1 37 51
M  V30 102 1 38 73
M  V30 103 1 39 96
M  V30 104 1 40 72
M  V30 105 1 42 63
M  V30 106 1 43 78
M  V30 107 1 44 75
M  V30 108 1 45 60
M  V30 END BOND
M  V30 END CTAB
M  END

$$$$
