
     RDKit          3D

  0  0  0  0  0  0  0  0  0  0999 V3000
M  V30 BEGIN CTAB
M  V30 COUNTS 99 108 0 0 0
M  V30 BEGIN ATOM
M  V30 1 Pd -5.1791 1.1531 -2.4561 0
M  V30 2 Pb -5.1286 1.9884 -3.0055 0
M  V30 3 Pb -5.5668 1.6768 -1.6983 0
M  V30 4 Pb -4.7321 0.6553 -3.2070 0
M  V30 5 Pb -5.2256 0.3507 -1.8539 0
M  V30 6 Pd 4.4193 2.7439 1.7418 0
M  V30 7 Pb 4.9304 2.5815 0.8966 0
M  V30 8 Pb 4.8626 1.9767 2.2174 0
M  V30 9 Pb 3.9949 3.4876 1.2326 0
M  V30 10 Pb 3.8468 2.9389 2.5420 0
M  V30 11 Pd -1.0884 -4.6013 -4.9672 0
M  V30 12 Pb -1.3587 -3.7575 -5.4279 0
M  V30 13 Pb -0.9417 -5.3481 -4.2910 0
M  V30 14 Pb -2.0009 -4.9465 -5.1543 0
M  V30 15 Pb -0.1450 -4.2832 -4.8621 0
M  V30 16 Pd 3.2382 -2.3729 3.7211 0
M  V30 17 Pb 2.8263 -1.7290 4.3578 0
M  V30 18 Pb 2.4243 -2.9537 3.7492 0
M  V30 19 Pb 4.0363 -1.7675 3.6511 0
M  V30 20 Pb 3.6116 -2.9895 3.0348 0
M  V30 21 Pd -2.7610 3.9447 3.8654 0
M  V30 22 Pb -1.8254 3.9426 4.2262 0
M  V30 23 Pb -2.6713 4.8812 3.5500 0
M  V30 24 Pb -2.7918 2.9539 3.9189 0
M  V30 25 Pb -3.6536 3.9128 3.4187 0
M  V30 26 Pd 4.6546 -1.2262 -1.1333 0
M  V30 27 Pb 4.9057 -0.3652 -1.5602 0
M  V30 28 Pb 4.4717 -1.6828 -2.0016 0
M  V30 29 Pb 4.7296 -0.7142 -0.2755 0
M  V30 30 Pb 4.5237 -2.0963 -0.6639 0
M  V30 31 Pd -3.0383 -5.5895 0.1309 0
M  V30 32 Pb -3.6605 -4.9186 0.5267 0
M  V30 33 Pb -2.3809 -6.0850 -0.4667 0
M  V30 34 Pb -2.3428 -5.3836 0.8230 0
M  V30 35 Pb -3.7800 -5.8540 -0.4743 0
M  V30 36 Pd 0.9645 1.3505 1.8126 0
M  V30 37 Pb 1.9646 1.3950 1.7398 0
M  V30 38 Pb 1.0642 1.2176 2.7967 0
M  V30 39 Pb 0.8762 1.5188 0.8244 0
M  V30 40 Pb -0.0039 1.1445 1.9540 0
M  V30 41 Pd -1.2789 4.3979 -2.8988 0
M  V30 42 Pb -0.3781 4.7215 -2.6218 0
M  V30 43 Pb -0.6532 3.7645 -2.4254 0
M  V30 44 Pb -1.5460 4.9511 -2.1108 0
M  V30 45 Pb -2.1748 4.5293 -3.3205 0
M  V30 46 Ag -2.6891 -5.2141 -5.1620 0
M  V30 47 Fe -4.0333 -5.8225 -3.3373 0
M  V30 48 Ag -4.2616 -6.0182 -1.0098 0
M  V30 49 Ag -5.8048 2.0593 -1.0995 0
M  V30 50 Fe -5.1599 2.9997 0.9823 0
M  V30 51 Ag -4.2812 3.8546 3.0148 0
M  V30 52 Ag -2.5977 5.4699 3.1048 0
M  V30 53 Fe -2.1518 5.6454 0.7844 0
M  V30 54 Ag -1.6966 5.3991 -1.5289 0
M  V30 55 Ag -4.3645 0.3430 -3.7891 0
M  V30 56 Fe -3.0123 -1.3479 -4.7760 0
M  V30 57 Ag -1.6660 -3.1077 -5.6426 0
M  V30 58 Ag 3.7107 4.0017 0.7719 0
M  V30 59 Fe 2.0155 4.5554 -0.7901 0
M  V30 60 Ag 0.2575 4.9758 -2.3239 0
M  V30 61 Ag -5.2849 -0.1869 -1.3273 0
M  V30 62 Fe -4.7332 -2.2527 -0.2869 0
M  V30 63 Ag -4.1146 -4.3408 0.6670 0
M  V30 64 Ag 1.8194 -3.3978 3.7354 0
M  V30 65 Fe -0.0165 -4.3047 2.5282 0
M  V30 66 Ag -1.8772 -5.2639 1.4024 0
M  V30 67 Ag 3.3845 3.1046 3.1131 0
M  V30 68 Fe 1.1557 3.5155 3.8352 0
M  V30 69 Ag -1.1078 3.9087 4.4513 0
M  V30 70 Ag 0.5740 -4.0675 -4.8297 0
M  V30 71 Fe 2.4299 -3.0545 -3.7483 0
M  V30 72 Ag 4.2568 -2.0313 -2.6278 0
M  V30 73 Ba 5.2287 2.5170 0.2093 0
M  V30 74 Ga 5.2259 1.4559 -0.8117 0
M  V30 75 Ba 5.1644 0.3101 -1.7339 0
M  V30 76 Ba 2.4997 -1.1953 4.7610 0
M  V30 77 Ga 1.8004 -0.0187 4.2308 0
M  V30 78 Ba 1.1424 1.0908 3.5296 0
M  V30 79 Ba 5.2166 1.4078 2.5666 0
M  V30 80 Ga 4.8950 0.0545 3.0761 0
M  V30 81 Ba 4.6296 -1.3043 3.6033 0
M  V30 82 Ba 4.7577 -0.2422 0.3102 0
M  V30 83 Ga 3.7401 0.5538 1.0331 0
M  V30 84 Ba 2.7176 1.3482 1.7508 0
M  V30 85 Ba 3.8392 -3.4325 2.4804 0
M  V30 86 Ga 4.1697 -3.1275 1.0812 0
M  V30 87 Ba 4.4856 -2.7504 -0.3038 0
M  V30 88 Ba -2.7808 2.2239 3.7768 0
M  V30 89 Ga -1.7588 1.5129 2.9903 0
M  V30 90 Ba -0.6791 0.9115 2.1887 0
M  V30 91 Ba -5.0739 2.6299 -3.3923 0
M  V30 92 Ga -3.9908 3.6211 -3.5361 0
M  V30 93 Ba -2.8577 4.5611 -3.6267 0
M  V30 94 Ba 0.8892 1.6368 0.0777 0
M  V30 95 Ga 0.2936 2.4831 -0.9852 0
M  V30 96 Ba -0.1796 3.2263 -2.1784 0
M  V30 97 Ba -0.8653 -5.8774 -3.7376 0
M  V30 98 Ga -1.3975 -6.1220 -2.3558 0
M  V30 99 Ba -1.9009 -6.4108 -0.9717 0
M  V30 END ATOM
M  V30 BEGIN BOND
M  V30 1 1 1 2
M  V30 2 1 1 3
M  V30 3 1 1 4
M  V30 4 1 1 5
M  V30 5 1 6 7
M  V30 6 1 6 8
M  V30 7 1 6 9
M  V30 8 1 6 10
M  V30 9 1 11 12
M  V30 10 1 11 13
M  V30 11 1 11 14
M  V30 12 1 11 15
M  V30 13 1 16 17
M  V30 14 1 16 18
M  V30 15 1 16 19
M  V30 16 1 16 20
M  V30 17 1 21 22
M  V30 18 1 21 23
M  V30 19 1 21 24
M  V30 20 1 21 25
M  V30 21 1 26 27
M  V30 22 1 26 28
M  V30 23 1 26 29
M  V30 24 1 26 30
M  V30 25 1 31 32
M  V30 26 1 31 33
M  V30 27 1 31 34
M  V30 28 1 31 35
M  V30 29 1 36 37
M  V30 30 1 36 38
M  V30 31 1 36 39
M  V30 32 1 36 40
M  V30 33 1 41 42
M  V30 34 1 41 43
M  V30 35 1 41 44
M  V30 36 1 41 45
M  V30 37 1 46 47
M  V30 38 1 47 48
M  V30 39 1 49 50
M  V30 40 1 50 51
M  V30 41 1 52 53
M  V30 42 1 53 54
M  V30 43 1 55 56
M  V30 44 1 56 57
M  V30 45 1 58 59
M  V30 46 1 59 60
M  V30 47 1 61 62
M  V30 48 1 62 63
M  V30 49 1 64 65
M  V30 50 1 65 66
M  V30 51 1 67 68
M  V30 52 1 68 69
M  V30 53 1 70 71
M  V30 54 1 71 72
M  V30 55 1 73 74
M  V30 56 1 74 75
M  V30 57 1 76 77
M  V30 58 1 77 78
M  V30 59 1 79 80
M  V30 60 1 80 81
M  V30 61 1 82 83
M  V30 62 1 83 84
M  V30 63 1 85 86
M  V30 64 1 86 87
M  V30 65 1 88 89
M  V30 66 1 89 90
M  V30 67 1 91 92
M  V30 68 1 92 93
M  V30 69 1 94 95
M  V30 70 1 95 96
M  V30 71 1 97 98
M  V30 72 1 98 99
M  V30 73 1 2 91
M  V30 74 1 3 49
M  V30 75 1 4 55
M  V30 76 1 5 61
M  V30 77 1 7 73
M  V30 78 1 8 79
M  V30 79 1 9 58
M  V30 80 1 10 67
M  V30 81 1 12 57
M  V30 82 1 13 97
M  V30 83 1 14 46
M  V30 84 1 15 70
M  V30 85 1 17 76
M  V30 86 1 18 64
M  V30 87 1 19 81
M  V30 88 1 20 85
M  V30 89 1 22 69
M  V30 90 1 23 52
M  V30 91 1 24 88
M  V30 92 1 25 51
M  V30 93 1 27 75
M  V30 94 1 28 72
M  V30 95 1 29 82
M  V30 96 1 30 87
M  V30 97 1 32 63
M  V30 98 1 33 99
M  V30 99 1 34 66
M  V30 100 1 35 48
M  V30 101 1 37 84
M  V30 102 1 38 78
M  V30 103 1 39 94
M  V30 104 1 40 90
M  V30 105 1 42 60
M  V30 106 1 43 96
M  V30 107 1 44 54
M  V30 108 1 45 93
M  V30 END BOND
M  V30 END CTAB
M  END

$$$$
