
     RDKit          3D

  0  0  0  0  0  0  0  0  0  0999 V3000
M  V30 BEGIN CTAB
M  V30 COUNTS 99 108 0 0 0
M  V30 BEGIN ATOM
M  V30 1 Pd 0.0530 5.2906 -0.2356 0
M  V30 2 Pb 0.9418 4.8652 -0.4156 0
M  V30 3 Pb 0.4280 5.6389 0.6270 0
M  V30 4 Pb -0.3075 5.0334 -1.1366 0
M  V30 5 Pb -0.8495 5.6657 -0.0186 0
M  V30 6 Pd 0.3460 -1.0707 6.3383 0
M  V30 7 Pb 0.6453 -1.4153 5.4473 0
M  V30 8 Pb 1.2651 -0.7221 6.5247 0
M  V30 9 Pb -0.6167 -1.2018 6.1116 0
M  V30 10 Pb 0.0677 -0.6463 7.1972 0
M  V30 11 Pd 2.2389 -5.3532 -2.1061 0
M  V30 12 Pb 2.7303 -4.7227 -1.5017 0
M  V30 13 Pb 1.8030 -5.7646 -1.3020 0
M  V30 14 Pb 1.7608 -5.9857 -2.7236 0
M  V30 15 Pb 2.7097 -4.9449 -2.8886 0
M  V30 16 Pd -2.0175 -5.2598 -5.6010 0
M  V30 17 Pb -1.3308 -5.9462 -5.3514 0
M  V30 18 Pb -2.6594 -4.5197 -5.8030 0
M  V30 19 Pb -2.5524 -5.5096 -4.7987 0
M  V30 20 Pb -1.4666 -4.9155 -6.3599 0
M  V30 21 Pd -1.2585 -3.5588 1.3600 0
M  V30 22 Pb -0.5186 -3.1093 1.8627 0
M  V30 23 Pb -0.7579 -4.4223 1.4081 0
M  V30 24 Pb -1.9582 -4.0321 0.8309 0
M  V30 25 Pb -1.7335 -2.6931 1.1912 0
M  V30 26 Pd -0.8353 1.5142 -7.1119 0
M  V30 27 Pb -1.7372 1.0938 -7.0284 0
M  V30 28 Pb 0.1082 1.8332 -7.1237 0
M  V30 29 Pb -1.0958 2.2760 -6.5168 0
M  V30 30 Pb -0.5575 0.6947 -7.6134 0
M  V30 31 Pd 4.4309 -0.5607 -2.8398 0
M  V30 32 Pb 4.4042 0.2752 -2.2913 0
M  V30 33 Pb 4.4062 0.0188 -3.6513 0
M  V30 34 Pb 4.4054 -1.3815 -3.4112 0
M  V30 35 Pb 4.4034 -1.1424 -2.0264 0
M  V30 36 Pd -4.0097 3.5167 2.8309 0
M  V30 37 Pb -3.9490 2.8542 2.0874 0
M  V30 38 Pb -3.9943 4.1597 3.5968 0
M  V30 39 Pb -4.0907 2.7215 3.4340 0
M  V30 40 Pb -3.8885 4.2933 2.2093 0
M  V30 41 Pd 1.0196 5.4838 7.4286 0
M  V30 42 Pb 1.8319 4.8987 7.4311 0
M  V30 43 Pb 1.3183 5.9464 6.5946 0
M  V30 44 Pb 0.1241 5.9137 7.3356 0
M  V30 45 Pb 0.6694 4.9170 8.1697 0
M  V30 46 Ag 1.6132 4.5344 -0.4870 0
M  V30 47 Fe 2.9894 2.7357 -1.2067 0
M  V30 48 Ag 4.3566 0.9328 -1.9329 0
M  V30 49 Ag -2.0941 -2.0676 0.9800 0
M  V30 50 Fe -2.9812 0.1154 1.2812 0
M  V30 51 Ag -3.8654 2.2979 1.5941 0
M  V30 52 Ag -2.9121 -5.6211 -4.1551 0
M  V30 53 Fe -2.8074 -5.0923 -1.8474 0
M  V30 54 Ag -2.4303 -4.4050 0.3890 0
M  V30 55 Ag -3.0694 -3.9100 -5.9543 0
M  V30 56 Fe -2.8919 -1.5975 -6.4622 0
M  V30 57 Ag -2.3423 0.6605 -6.9471 0
M  V30 58 Ag -0.0900 -0.2269 7.7946 0
M  V30 59 Fe 0.0589 2.0416 8.4620 0
M  V30 60 Ag 0.4123 4.3791 8.6176 0
M  V30 61 Ag 1.8721 -0.3042 6.6681 0
M  V30 62 Fe 2.3523 1.9889 7.0672 0
M  V30 63 Ag 2.3345 4.3405 7.4104 0
M  V30 64 Ag -1.1003 -4.5386 -6.8936 0
M  V30 65 Fe -0.6394 -2.3046 -7.5521 0
M  V30 66 Ag -0.3786 0.0285 -7.9078 0
M  V30 67 Ag -1.3437 -1.1367 5.9460 0
M  V30 68 Fe -2.8392 0.3877 4.9064 0
M  V30 69 Ag -4.1074 2.0747 3.8163 0
M  V30 70 Ag -0.6149 4.9221 -1.8163 0
M  V30 71 Fe -0.9144 3.8435 -3.9146 0
M  V30 72 Ag -1.2751 2.8207 -6.0312 0
M  V30 73 Ag -3.9072 4.6528 4.1550 0
M  V30 74 Fe -2.3572 5.5047 5.7379 0
M  V30 75 Ag -0.5804 6.1158 7.1879 0
M  V30 76 Ag 0.7424 5.9402 1.2416 0
M  V30 77 Fe 1.1238 6.0989 3.5824 0
M  V30 78 Ag 1.4907 6.2400 5.9266 0
M  V30 79 Ag 0.8380 1.9733 -7.0623 0
M  V30 80 Fe 2.6995 1.3285 -5.7447 0
M  V30 81 Ag 4.3173 0.4691 -4.2408 0
M  V30 82 Ba 0.9132 -1.6209 4.7763 0
M  V30 83 Ga 0.4416 -2.2239 3.5139 0
M  V30 84 Ba 0.0788 -2.8160 2.2109 0
M  V30 85 Ba 3.0868 -4.6328 -3.4573 0
M  V30 86 Ga 3.7258 -3.3185 -3.6610 0
M  V30 87 Ba 4.3562 -1.9963 -3.8386 0
M  V30 88 Ba 3.1078 -4.2504 -1.0544 0
M  V30 89 Ga 3.7356 -2.9254 -1.2312 0
M  V30 90 Ba 4.3554 -1.6002 -1.4336 0
M  V30 91 Ba 1.4276 -6.4670 -3.2002 0
M  V30 92 Ga 0.3024 -6.4449 -4.1618 0
M  V30 93 Ba -0.8176 -6.4503 -5.1297 0
M  V30 94 Ba -1.5416 5.9151 0.1341 0
M  V30 95 Ga -2.6642 5.4058 0.9485 0
M  V30 96 Ba -3.7830 4.8907 1.7646 0
M  V30 97 Ba 1.5066 -6.0596 -0.6758 0
M  V30 98 Ga 0.5650 -5.5848 0.3584 0
M  V30 99 Ba -0.3820 -5.0696 1.3680 0
M  V30 END ATOM
M  V30 BEGIN BOND
M  V30 1 1 1 2
M  V30 2 1 1 3
M  V30 3 1 1 4
M  V30 4 1 1 5
M  V30 5 1 6 7
M  V30 6 1 6 8
M  V30 7 1 6 9
M  V30 8 1 6 10
M  V30 9 1 11 12
M  V30 10 1 11 13
M  V30 11 1 11 14
M  V30 12 1 11 15
M  V30 13 1 16 17
M  V30 14 1 16 18
M  V30 15 1 16 19
M  V30 16 1 16 20
M  V30 17 1 21 22
M  V30 18 1 21 23
M  V30 19 1 21 24
M  V30 20 1 21 25
M  V30 21 1 26 27
M  V30 22 1 26 28
M  V30 23 1 26 29
M  V30 24 1 26 30
M  V30 25 1 31 32
M  V30 26 1 31 33
M  V30 27 1 31 34
M  V30 28 1 31 35
M  V30 29 1 36 37
M  V30 30 1 36 38
M  V30 31 1 36 39
M  V30 32 1 36 40
M  V30 33 1 41 42
M  V30 34 1 41 43
M  V30 35 1 41 44
M  V30 36 1 41 45
M  V30 37 1 46 47
M  V30 38 1 47 48
M  V30 39 1 49 50
M  V30 40 1 50 51
M  V30 41 1 52 53
M  V30 42 1 53 54
M  V30 43 1 55 56
M  V30 44 1 56 57
M  V30 45 1 58 59
M  V30 46 1 59 60
M  V30 47 1 61 62
M  V30 48 1 62 63
M  V30 49 1 64 65
M  V30 50 1 65 66
M  V30 51 1 67 68
M  V30 52 1 68 69
M  V30 53 1 70 71
M  V30 54 1 71 72
M  V30 55 1 73 74
M  V30 56 1 74 75
M  V30 57 1 76 77
M  V30 58 1 77 78
M  V30 59 1 79 80
M  V30 60 1 80 81
M  V30 61 1 82 83
M  V30 62 1 83 84
M  V30 63 1 85 86
M  V30 64 1 86 87
M  V30 65 1 88 89
M  V30 66 1 89 90
M  V30 67 1 91 92
M  V30 68 1 92 93
M  V30 69 1 94 95
M  V30 70 1 95 96
M  V30 71 1 97 98
M  V30 72 1 98 99
M  V30 73 1 2 46
M  V30 74 1 3 76
M  V30 75 1 4 70
M  V30 76 1 5 94
M  V30 77 1 7 82
M  V30 78 1 8 61
M  V30 79 1 9 67
M  V30 80 1 10 58
M  V30 81 1 12 88
M  V30 82 1 13 97
M  V30 83 1 14 91
M  V30 84 1 15 85
M  V30 85 1 17 93
M  V30 86 1 18 55
M  V30 87 1 19 52
M  V30 88 1 20 64
M  V30 89 1 22 84
M  V30 90 1 23 99
M  V30 91 1 24 54
M  V30 92 1 25 49
M  V30 93 1 27 57
M  V30 94 1 28 79
M  V30 95 1 29 72
M  V30 96 1 30 66
M  V30 97 1 32 48
M  V30 98 1 33 81
M  V30 99 1 34 87
M  V30 100 1 35 90
M  V30 101 1 37 51
M  V30 102 1 38 73
M  V30 103 1 39 69
M  V30 104 1 40 96
M  V30 105 1 42 63
M  V30 106 1 43 78
M  V30 107 1 44 75
M  V30 108 1 45 60
M  V30 END BOND
M  V30 END CTAB
M  END

$$$$
