
     RDKit          3D

  0  0  0  0  0  0  0  0  0  0999 V3000
M  V30 BEGIN CTAB
M  V30 COUNTS 99 108 0 0 0
M  V30 BEGIN ATOM
M  V30 1 Pd 2.0544 -0.1418 3.9472 0
M  V30 2 Pb 3.0403 -0.0574 3.7965 0
M  V30 3 Pb 1.0829 -0.2701 4.1475 0
M  V30 4 Pb 2.1365 -1.1281 4.1048 0
M  V30 5 Pb 1.9975 0.8526 3.8052 0
M  V30 6 Pd -7.1852 3.6118 -0.1694 0
M  V30 7 Pb -6.8600 3.3457 -1.0790 0
M  V30 8 Pb -7.5162 2.6893 0.0358 0
M  V30 9 Pb -6.7103 4.4865 -0.2063 0
M  V30 10 Pb -7.5188 3.8718 0.7325 0
M  V30 11 Pd 4.5851 -0.2501 -5.6769 0
M  V30 12 Pb 5.0489 0.6150 -5.5183 0
M  V30 13 Pb 3.7628 0.2381 -5.9648 0
M  V30 14 Pb 4.1057 -1.1093 -5.8558 0
M  V30 15 Pb 5.3936 -0.7341 -5.2943 0
M  V30 16 Pd -0.5323 -5.0555 -3.0103 0
M  V30 17 Pb -0.0474 -4.8992 -3.8687 0
M  V30 18 Pb -0.9227 -5.1524 -2.0895 0
M  V30 19 Pb -1.2562 -4.4309 -3.3081 0
M  V30 20 Pb 0.1868 -5.6918 -2.7517 0
M  V30 21 Pd -2.7368 2.1258 -3.9677 0
M  V30 22 Pb -3.6679 2.3211 -3.6441 0
M  V30 23 Pb -1.8684 1.9771 -4.4437 0
M  V30 24 Pb -3.0414 1.2108 -4.2283 0
M  V30 25 Pb -2.3489 2.9685 -3.5942 0
M  V30 26 Pd 2.1310 -5.3355 1.4055 0
M  V30 27 Pb 1.1308 -5.3430 1.3027 0
M  V30 28 Pb 3.1281 -5.2944 1.4212 0
M  V30 29 Pb 2.0929 -4.8353 2.2739 0
M  V30 30 Pb 2.1993 -5.8794 0.5752 0
M  V30 31 Pd 7.7733 -0.9006 -0.8494 0
M  V30 32 Pb 7.6836 -0.5864 0.0931 0
M  V30 33 Pb 7.5715 -1.8204 -0.5167 0
M  V30 34 Pb 7.7209 -1.1996 -1.8190 0
M  V30 35 Pb 7.9588 0.0262 -1.1579 0
M  V30 36 Pd -0.6713 4.9886 2.5940 0
M  V30 37 Pb -0.4351 5.0936 1.6283 0
M  V30 38 Pb -0.9747 4.8566 3.5386 0
M  V30 39 Pb -1.5094 5.4698 2.3360 0
M  V30 40 Pb 0.1818 4.5107 2.8172 0
M  V30 41 Pd -5.5184 0.8816 5.7790 0
M  V30 42 Pb -6.0948 0.3919 5.1205 0
M  V30 43 Pb -4.7810 0.2198 5.6708 0
M  V30 44 Pb -4.8849 1.4813 6.2629 0
M  V30 45 Pb -6.2053 1.6003 5.7775 0
M  V30 46 Ag 3.7803 0.0194 3.6949 0
M  V30 47 Fe 5.6935 -0.1530 2.2992 0
M  V30 48 Ag 7.5132 -0.3779 0.7908 0
M  V30 49 Ag -1.9611 3.5248 -3.2720 0
M  V30 50 Fe -1.1311 4.4254 -1.2361 0
M  V30 51 Ag -0.3892 5.1943 0.8861 0
M  V30 52 Ag -1.7803 -3.9655 -3.5791 0
M  V30 53 Fe -2.5503 -1.7561 -3.9906 0
M  V30 54 Ag -3.2245 0.4938 -4.3460 0
M  V30 55 Ag -7.7368 4.0050 1.4326 0
M  V30 56 Fe -7.3847 3.2471 3.6466 0
M  V30 57 Ag -6.6839 2.1460 5.6198 0
M  V30 58 Ag -7.6776 2.0254 0.3506 0
M  V30 59 Fe -7.2094 0.8959 2.3913 0
M  V30 60 Ag -6.5047 0.1485 4.5372 0
M  V30 61 Ag 5.4541 1.1912 -5.2899 0
M  V30 62 Fe 6.8966 1.4311 -3.4444 0
M  V30 63 Ag 7.9924 0.6818 -1.4999 0
M  V30 64 Ag 3.7031 -1.7248 -6.0028 0
M  V30 65 Fe 2.0479 -3.2745 -5.2989 0
M  V30 66 Ag 0.3850 -4.7466 -4.4600 0
M  V30 67 Ag -6.2813 5.0838 -0.0764 0
M  V30 68 Fe -4.2047 5.5962 0.9526 0
M  V30 69 Ag -2.1027 5.8167 2.0338 0
M  V30 70 Ag -1.2231 4.7063 4.2310 0
M  V30 71 Fe -2.7451 3.4072 5.5088 0
M  V30 72 Ag -4.3719 1.9788 6.4829 0
M  V30 73 Ag 0.3921 -0.4949 4.3382 0
M  V30 74 Fe -1.8976 -0.3154 4.9406 0
M  V30 75 Ag -4.1922 -0.2222 5.5441 0
M  V30 76 Ag 3.8717 -5.2423 1.3566 0
M  V30 77 Fe 5.6847 -3.9142 0.5941 0
M  V30 78 Ag 7.3966 -2.4811 -0.2109 0
M  V30 79 Ag 3.1277 0.5953 -6.1373 0
M  V30 80 Fe 0.9394 1.2354 -5.4697 0
M  V30 81 Ag -1.2585 1.9163 -4.8792 0
M  V30 82 Ba -6.6629 3.1489 -1.7771 0
M  V30 83 Ga -5.4677 2.8048 -2.5781 0
M  V30 84 Ba -4.4069 2.4372 -3.5407 0
M  V30 85 Ba -1.1489 -5.2160 -1.3715 0
M  V30 86 Ga -0.4047 -5.2863 -0.0899 0
M  V30 87 Ba 0.3880 -5.3529 1.1624 0
M  V30 88 Ba 6.0094 -1.0947 -5.0135 0
M  V30 89 Ga 6.8022 -1.2222 -3.7516 0
M  V30 90 Ba 7.6678 -1.4263 -2.5489 0
M  V30 91 Ba 0.7307 -6.1577 -2.5492 0
M  V30 92 Ga 1.5113 -6.2582 -1.3116 0
M  V30 93 Ba 2.2469 -6.2922 -0.0432 0
M  V30 94 Ba 2.1573 -1.8627 4.2648 0
M  V30 95 Ga 2.1309 -3.1607 3.5578 0
M  V30 96 Ba 2.1085 -4.5088 2.9520 0
M  V30 97 Ba 2.0797 1.5971 3.7019 0
M  V30 98 Ga 1.3776 2.8499 3.3426 0
M  V30 99 Ba 0.8342 4.1848 3.0036 0
M  V30 END ATOM
M  V30 BEGIN BOND
M  V30 1 1 1 2
M  V30 2 1 1 3
M  V30 3 1 1 4
M  V30 4 1 1 5
M  V30 5 1 6 7
M  V30 6 1 6 8
M  V30 7 1 6 9
M  V30 8 1 6 10
M  V30 9 1 11 12
M  V30 10 1 11 13
M  V30 11 1 11 14
M  V30 12 1 11 15
M  V30 13 1 16 17
M  V30 14 1 16 18
M  V30 15 1 16 19
M  V30 16 1 16 20
M  V30 17 1 21 22
M  V30 18 1 21 23
M  V30 19 1 21 24
M  V30 20 1 21 25
M  V30 21 1 26 27
M  V30 22 1 26 28
M  V30 23 1 26 29
M  V30 24 1 26 30
M  V30 25 1 31 32
M  V30 26 1 31 33
M  V30 27 1 31 34
M  V30 28 1 31 35
M  V30 29 1 36 37
M  V30 30 1 36 38
M  V30 31 1 36 39
M  V30 32 1 36 40
M  V30 33 1 41 42
M  V30 34 1 41 43
M  V30 35 1 41 44
M  V30 36 1 41 45
M  V30 37 1 46 47
M  V30 38 1 47 48
M  V30 39 1 49 50
M  V30 40 1 50 51
M  V30 41 1 52 53
M  V30 42 1 53 54
M  V30 43 1 55 56
M  V30 44 1 56 57
M  V30 45 1 58 59
M  V30 46 1 59 60
M  V30 47 1 61 62
M  V30 48 1 62 63
M  V30 49 1 64 65
M  V30 50 1 65 66
M  V30 51 1 67 68
M  V30 52 1 68 69
M  V30 53 1 70 71
M  V30 54 1 71 72
M  V30 55 1 73 74
M  V30 56 1 74 75
M  V30 57 1 76 77
M  V30 58 1 77 78
M  V30 59 1 79 80
M  V30 60 1 80 81
M  V30 61 1 82 83
M  V30 62 1 83 84
M  V30 63 1 85 86
M  V30 64 1 86 87
M  V30 65 1 88 89
M  V30 66 1 89 90
M  V30 67 1 91 92
M  V30 68 1 92 93
M  V30 69 1 94 95
M  V30 70 1 95 96
M  V30 71 1 97 98
M  V30 72 1 98 99
M  V30 73 1 2 46
M  V30 74 1 3 73
M  V30 75 1 4 94
M  V30 76 1 5 97
M  V30 77 1 7 82
M  V30 78 1 8 58
M  V30 79 1 9 67
M  V30 80 1 10 55
M  V30 81 1 12 61
M  V30 82 1 13 79
M  V30 83 1 14 64
M  V30 84 1 15 88
M  V30 85 1 17 66
M  V30 86 1 18 85
M  V30 87 1 19 52
M  V30 88 1 20 91
M  V30 89 1 22 84
M  V30 90 1 23 81
M  V30 91 1 24 54
M  V30 92 1 25 49
M  V30 93 1 27 87
M  V30 94 1 28 76
M  V30 95 1 29 96
M  V30 96 1 30 93
M  V30 97 1 32 48
M  V30 98 1 33 78
M  V30 99 1 34 90
M  V30 100 1 35 63
M  V30 101 1 37 51
M  V30 102 1 38 70
M  V30 103 1 39 69
M  V30 104 1 40 99
M  V30 105 1 42 60
M  V30 106 1 43 75
M  V30 107 1 44 72
M  V30 108 1 45 57
M  V30 END BOND
M  V30 END CTAB
M  END

$$$$
