
     RDKit          3D

  0  0  0  0  0  0  0  0  0  0999 V3000
M  V30 BEGIN CTAB
M  V30 COUNTS 99 108 0 0 0
M  V30 BEGIN ATOM
M  V30 1 Pd 1.5173 2.7867 -3.3817 0
M  V30 2 Pb 1.3533 2.9736 -2.4134 0
M  V30 3 Pb 1.9545 3.6860 -3.4616 0
M  V30 4 Pb 1.0979 1.8805 -3.3145 0
M  V30 5 Pb 1.7287 2.5339 -4.3250 0
M  V30 6 Pd 4.3923 0.7889 1.0233 0
M  V30 7 Pb 3.4198 0.5931 1.1688 0
M  V30 8 Pb 4.2329 1.7216 1.3589 0
M  V30 9 Pb 4.5735 -0.1100 0.6130 0
M  V30 10 Pb 5.3589 1.0226 0.9267 0
M  V30 11 Pd -3.8153 -1.2443 5.6671 0
M  V30 12 Pb -4.7046 -0.7995 5.6470 0
M  V30 13 Pb -2.9133 -1.6839 5.6975 0
M  V30 14 Pb -4.2864 -2.1196 5.5514 0
M  V30 15 Pb -3.3790 -0.3276 5.7092 0
M  V30 16 Pd -5.7330 -5.9724 0.3059 0
M  V30 17 Pb -6.0242 -5.8228 1.2500 0
M  V30 18 Pb -5.3351 -6.0245 -0.6066 0
M  V30 19 Pb -5.0036 -6.5479 0.6659 0
M  V30 20 Pb -6.3260 -5.2487 -0.0530 0
M  V30 21 Pd 0.1912 -3.0819 2.2235 0
M  V30 22 Pb 0.4218 -2.1122 2.1281 0
M  V30 23 Pb 0.0503 -2.9793 3.2107 0
M  V30 24 Pb -0.0888 -4.0391 2.2830 0
M  V30 25 Pb 0.2839 -3.1823 1.2328 0
M  V30 26 Pd -3.3994 -0.4672 -3.2719 0
M  V30 27 Pb -3.3310 -1.4373 -3.4970 0
M  V30 28 Pb -3.4952 0.4957 -3.0186 0
M  V30 29 Pb -2.4073 -0.3757 -3.3796 0
M  V30 30 Pb -4.3574 -0.6532 -3.0401 0
M  V30 31 Pd -3.1374 3.6755 2.6985 0
M  V30 32 Pb -2.1802 3.6541 2.4174 0
M  V30 33 Pb -3.3669 3.9308 1.7620 0
M  V30 34 Pb -2.9089 3.2642 3.5972 0
M  V30 35 Pb -4.0975 3.6840 2.9577 0
M  V30 36 Pd 4.0424 -1.1904 -3.9978 0
M  V30 37 Pb 3.2241 -1.7086 -3.7581 0
M  V30 38 Pb 4.8444 -0.6362 -4.2078 0
M  V30 39 Pb 4.4520 -1.5462 -3.1533 0
M  V30 40 Pb 3.5993 -0.7526 -4.7817 0
M  V30 41 Pd 5.9430 4.7657 -1.2936 0
M  V30 42 Pb 5.4251 4.9087 -0.4508 0
M  V30 43 Pb 5.2462 5.2294 -1.8427 0
M  V30 44 Pb 6.3997 4.4557 -2.1212 0
M  V30 45 Pb 6.5903 4.2128 -0.7743 0
M  V30 46 Ag 1.2665 3.1025 -1.6798 0
M  V30 47 Fe -0.0901 3.3743 0.2491 0
M  V30 48 Ag -1.4801 3.6411 2.1547 0
M  V30 49 Ag 0.3353 -3.2452 0.4871 0
M  V30 50 Fe 1.4429 -2.7033 -1.5414 0
M  V30 51 Ag 2.6362 -2.0926 -3.5005 0
M  V30 52 Ag -4.3792 -6.8318 0.9592 0
M  V30 53 Fe -2.2857 -5.9895 1.6869 0
M  V30 54 Ag -0.3631 -4.7358 2.2829 0
M  V30 55 Ag -4.9982 -5.9351 -1.2666 0
M  V30 56 Fe -4.1087 -4.1828 -2.5928 0
M  V30 57 Ag -3.3501 -2.1770 -3.6041 0
M  V30 58 Ag -5.2986 -0.3655 5.5596 0
M  V30 59 Fe -5.5522 1.7031 4.4632 0
M  V30 60 Ag -4.7761 3.5453 3.2191 0
M  V30 61 Ag -6.6401 -4.6445 -0.3743 0
M  V30 62 Fe -6.0116 -2.7088 -1.6073 0
M  V30 63 Ag -5.0286 -0.9039 -2.8065 0
M  V30 64 Ag -4.6965 -2.7324 5.4093 0
M  V30 65 Fe -5.4709 -4.2598 3.7629 0
M  V30 66 Ag -6.1279 -5.6845 1.9794 0
M  V30 67 Ag 5.3879 -0.1460 -4.3566 0
M  V30 68 Fe 6.2152 1.9734 -3.6974 0
M  V30 69 Ag 6.6756 4.0681 -2.6932 0
M  V30 70 Ag -3.5829 1.2059 -2.7936 0
M  V30 71 Fe -3.5743 2.7132 -0.9599 0
M  V30 72 Ag -3.5006 4.0045 1.0302 0
M  V30 73 Ba 2.6844 0.5312 1.3171 0
M  V30 74 Ga 1.6590 -0.4740 1.6654 0
M  V30 75 Ba 0.5458 -1.3795 2.0179 0
M  V30 76 Ba -3.0629 0.3684 5.7567 0
M  V30 77 Ga -2.9254 1.6296 4.9672 0
M  V30 78 Ba -2.7293 2.9328 4.2625 0
M  V30 79 Ba 6.0679 1.2577 0.8719 0
M  V30 80 Ga 6.6179 2.4753 0.2546 0
M  V30 81 Ba 7.0217 3.7272 -0.4053 0
M  V30 82 Ba 4.1343 2.4404 1.5641 0
M  V30 83 Ga 4.5558 3.7063 0.9268 0
M  V30 84 Ba 5.0352 4.8949 0.1899 0
M  V30 85 Ba 4.7589 -0.7613 0.2793 0
M  V30 86 Ga 4.7292 -1.2845 -1.1065 0
M  V30 87 Ba 4.7000 -1.8096 -2.4915 0
M  V30 88 Ba 0.8329 1.1781 -3.3297 0
M  V30 89 Ga -0.4534 0.4524 -3.3606 0
M  V30 90 Ba -1.6557 -0.4048 -3.3988 0
M  V30 91 Ba 1.8857 2.2269 -4.9905 0
M  V30 92 Ga 2.5809 0.9500 -5.2450 0
M  V30 93 Ba 3.2943 -0.3396 -5.3306 0
M  V30 94 Ba 2.2785 4.3652 -3.4903 0
M  V30 95 Ga 3.4917 4.9621 -2.8926 0
M  V30 96 Ba 4.7126 5.5271 -2.2798 0
M  V30 97 Ba -2.2269 -1.9917 5.7466 0
M  V30 98 Ga -1.1618 -2.4508 4.8283 0
M  V30 99 Ba -0.0677 -2.9231 3.9518 0
M  V30 END ATOM
M  V30 BEGIN BOND
M  V30 1 1 1 2
M  V30 2 1 1 3
M  V30 3 1 1 4
M  V30 4 1 1 5
M  V30 5 1 6 7
M  V30 6 1 6 8
M  V30 7 1 6 9
M  V30 8 1 6 10
M  V30 9 1 11 12
M  V30 10 1 11 13
M  V30 11 1 11 14
M  V30 12 1 11 15
M  V30 13 1 16 17
M  V30 14 1 16 18
M  V30 15 1 16 19
M  V30 16 1 16 20
M  V30 17 1 21 22
M  V30 18 1 21 23
M  V30 19 1 21 24
M  V30 20 1 21 25
M  V30 21 1 26 27
M  V30 22 1 26 28
M  V30 23 1 26 29
M  V30 24 1 26 30
M  V30 25 1 31 32
M  V30 26 1 31 33
M  V30 27 1 31 34
M  V30 28 1 31 35
M  V30 29 1 36 37
M  V30 30 1 36 38
M  V30 31 1 36 39
M  V30 32 1 36 40
M  V30 33 1 41 42
M  V30 34 1 41 43
M  V30 35 1 41 44
M  V30 36 1 41 45
M  V30 37 1 46 47
M  V30 38 1 47 48
M  V30 39 1 49 50
M  V30 40 1 50 51
M  V30 41 1 52 53
M  V30 42 1 53 54
M  V30 43 1 55 56
M  V30 44 1 56 57
M  V30 45 1 58 59
M  V30 46 1 59 60
M  V30 47 1 61 62
M  V30 48 1 62 63
M  V30 49 1 64 65
M  V30 50 1 65 66
M  V30 51 1 67 68
M  V30 52 1 68 69
M  V30 53 1 70 71
M  V30 54 1 71 72
M  V30 55 1 73 74
M  V30 56 1 74 75
M  V30 57 1 76 77
M  V30 58 1 77 78
M  V30 59 1 79 80
M  V30 60 1 80 81
M  V30 61 1 82 83
M  V30 62 1 83 84
M  V30 63 1 85 86
M  V30 64 1 86 87
M  V30 65 1 88 89
M  V30 66 1 89 90
M  V30 67 1 91 92
M  V30 68 1 92 93
M  V30 69 1 94 95
M  V30 70 1 95 96
M  V30 71 1 97 98
M  V30 72 1 98 99
M  V30 73 1 2 46
M  V30 74 1 3 94
M  V30 75 1 4 88
M  V30 76 1 5 91
M  V30 77 1 7 73
M  V30 78 1 8 82
M  V30 79 1 9 85
M  V30 80 1 10 79
M  V30 81 1 12 58
M  V30 82 1 13 97
M  V30 83 1 14 64
M  V30 84 1 15 76
M  V30 85 1 17 66
M  V30 86 1 18 55
M  V30 87 1 19 52
M  V30 88 1 20 61
M  V30 89 1 22 75
M  V30 90 1 23 99
M  V30 91 1 24 54
M  V30 92 1 25 49
M  V30 93 1 27 57
M  V30 94 1 28 70
M  V30 95 1 29 90
M  V30 96 1 30 63
M  V30 97 1 32 48
M  V30 98 1 33 72
M  V30 99 1 34 78
M  V30 100 1 35 60
M  V30 101 1 37 51
M  V30 102 1 38 67
M  V30 103 1 39 87
M  V30 104 1 40 93
M  V30 105 1 42 84
M  V30 106 1 43 96
M  V30 107 1 44 69
M  V30 108 1 45 81
M  V30 END BOND
M  V30 END CTAB
M  END

$$$$
