
     RDKit          3D

  0  0  0  0  0  0  0  0  0  0999 V3000
M  V30 BEGIN CTAB
M  V30 COUNTS 99 108 0 0 0
M  V30 BEGIN ATOM
M  V30 1 Pd 0.7401 -4.4996 -2.9431 0
M  V30 2 Pb 1.6871 -4.5075 -2.6301 0
M  V30 3 Pb 0.4834 -5.1592 -2.2381 0
M  V30 4 Pb 1.0437 -3.8699 -3.6576 0
M  V30 5 Pb -0.2106 -4.4483 -3.2549 0
M  V30 6 Pd -4.7367 -3.1700 4.3822 0
M  V30 7 Pb -3.9543 -2.5481 4.4012 0
M  V30 8 Pb -4.2334 -3.8577 4.9067 0
M  V30 9 Pb -5.2126 -2.5769 3.7349 0
M  V30 10 Pb -5.5191 -3.7879 4.3692 0
M  V30 11 Pd 3.2902 4.4283 3.5085 0
M  V30 12 Pb 3.2516 3.5737 4.0141 0
M  V30 13 Pb 2.4593 4.7452 3.9681 0
M  V30 14 Pb 3.3416 5.2726 2.9796 0
M  V30 15 Pb 4.0936 4.0839 2.9897 0
M  V30 16 Pd 1.4942 7.3733 -3.1753 0
M  V30 17 Pb 2.0126 7.5821 -2.3493 0
M  V30 18 Pb 2.3239 6.9953 -3.6218 0
M  V30 19 Pb 0.6636 7.5845 -2.6655 0
M  V30 20 Pb 0.9594 7.1422 -3.9806 0
M  V30 21 Pd -1.6590 3.5620 2.1828 0
M  V30 22 Pb -1.5506 2.7127 2.6985 0
M  V30 23 Pb -1.2998 4.0827 2.9590 0
M  V30 24 Pb -1.7747 4.4097 1.6635 0
M  V30 25 Pb -1.9608 3.0315 1.3885 0
M  V30 26 Pd 3.8406 2.3455 -5.0468 0
M  V30 27 Pb 4.0000 3.3383 -4.8892 0
M  V30 28 Pb 4.6497 2.1113 -4.4991 0
M  V30 29 Pb 3.6247 1.3844 -5.2186 0
M  V30 30 Pb 3.0625 2.5801 -5.6190 0
M  V30 31 Pd 5.7435 0.2437 -0.0123 0
M  V30 32 Pb 5.6553 -0.6645 -0.4172 0
M  V30 33 Pb 6.0378 0.6265 -0.8923 0
M  V30 34 Pb 5.8176 1.1521 0.4367 0
M  V30 35 Pb 5.4541 -0.1428 0.8563 0
M  V30 36 Pd -4.4172 -2.9912 -1.0492 0
M  V30 37 Pb -4.0213 -2.0767 -1.1478 0
M  V30 38 Pb -4.8312 -3.9033 -0.9786 0
M  V30 39 Pb -4.9623 -2.6246 -0.2886 0
M  V30 40 Pb -3.9049 -3.3247 -1.8458 0
M  V30 41 Pd -4.2734 -7.2473 2.2545 0
M  V30 42 Pb -3.8529 -7.1854 3.1611 0
M  V30 43 Pb -3.3811 -7.3689 1.8248 0
M  V30 44 Pb -4.7015 -7.1633 1.3562 0
M  V30 45 Pb -5.1593 -7.0839 2.6787 0
M  V30 46 Ag -3.3736 -2.0742 4.4154 0
M  V30 47 Fe -2.4106 -0.0063 3.7557 0
M  V30 48 Ag -1.4789 2.0697 3.0771 0
M  V30 49 Ag 2.4021 -4.4404 -2.4233 0
M  V30 50 Fe 4.0391 -2.9592 -1.5549 0
M  V30 51 Ag 5.5550 -1.3585 -0.6785 0
M  V30 52 Ag -2.1516 2.6277 0.7838 0
M  V30 53 Fe -2.9546 0.6217 -0.2063 0
M  V30 54 Ag -3.7560 -1.3767 -1.2130 0
M  V30 55 Ag 0.0686 7.6292 -2.2154 0
M  V30 56 Fe -0.9861 6.4225 -0.4644 0
M  V30 57 Ag -1.8488 5.0391 1.2612 0
M  V30 58 Ag 3.2960 2.8775 4.2602 0
M  V30 59 Fe 4.1724 0.9465 3.2342 0
M  V30 60 Ag 5.1986 -0.3157 1.5298 0
M  V30 61 Ag 0.6525 6.8314 -4.5772 0
M  V30 62 Fe 1.2175 4.8230 -5.6671 0
M  V30 63 Ag 2.4813 2.8616 -5.9814 0
M  V30 64 Ag 3.3989 5.8781 2.5450 0
M  V30 65 Fe 2.9149 6.8626 0.4421 0
M  V30 66 Ag 2.3581 7.7148 -1.7001 0
M  V30 67 Ag 1.3470 -3.4230 -4.1777 0
M  V30 68 Fe 2.3678 -1.3626 -4.7727 0
M  V30 69 Ag 3.3915 0.6911 -5.3857 0
M  V30 70 Ag 0.3089 -5.6678 -1.7165 0
M  V30 71 Fe -1.1930 -6.5609 -0.1107 0
M  V30 72 Ag -2.7160 -7.4304 1.4883 0
M  V30 73 Ba 2.9553 6.6902 -3.9287 0
M  V30 74 Ga 3.4892 5.3593 -4.3536 0
M  V30 75 Ba 4.1341 4.0900 -4.8116 0
M  V30 76 Ba 4.7099 3.8757 2.5854 0
M  V30 77 Ga 5.2411 2.8030 1.6913 0
M  V30 78 Ba 5.9181 1.8257 0.7866 0
M  V30 79 Ba -6.0708 -4.2897 4.3361 0
M  V30 80 Ga -6.0388 -5.6128 3.7029 0
M  V30 81 Ba -5.7940 -6.8845 3.0140 0
M  V30 82 Ba -3.8722 -4.4427 5.2089 0
M  V30 83 Ga -3.6739 -5.7753 4.6031 0
M  V30 84 Ba -3.5753 -7.0387 3.8439 0
M  V30 85 Ba -5.5677 -2.1964 3.1960 0
M  V30 86 Ga -5.4634 -2.2415 1.7220 0
M  V30 87 Ba -5.3690 -2.2810 0.2471 0
M  V30 88 Ba -0.9209 -4.4021 -3.4973 0
M  V30 89 Ga -2.2279 -3.9849 -2.9454 0
M  V30 90 Ba -3.5697 -3.5857 -2.4688 0
M  V30 91 Ba -5.1266 -4.5975 -0.9841 0
M  V30 92 Ga -5.0812 -5.8128 -0.1446 0
M  V30 93 Ba -5.0344 -7.0248 0.6995 0
M  V30 94 Ba 5.2865 1.9596 -4.1238 0
M  V30 95 Ga 5.7343 1.4238 -2.8187 0
M  V30 96 Ba 6.2863 0.9030 -1.5478 0
M  V30 97 Ba 1.8142 4.9631 4.2851 0
M  V30 98 Ga 0.3995 4.7307 3.9309 0
M  V30 99 Ba -0.9969 4.4663 3.5296 0
M  V30 END ATOM
M  V30 BEGIN BOND
M  V30 1 1 1 2
M  V30 2 1 1 3
M  V30 3 1 1 4
M  V30 4 1 1 5
M  V30 5 1 6 7
M  V30 6 1 6 8
M  V30 7 1 6 9
M  V30 8 1 6 10
M  V30 9 1 11 12
M  V30 10 1 11 13
M  V30 11 1 11 14
M  V30 12 1 11 15
M  V30 13 1 16 17
M  V30 14 1 16 18
M  V30 15 1 16 19
M  V30 16 1 16 20
M  V30 17 1 21 22
M  V30 18 1 21 23
M  V30 19 1 21 24
M  V30 20 1 21 25
M  V30 21 1 26 27
M  V30 22 1 26 28
M  V30 23 1 26 29
M  V30 24 1 26 30
M  V30 25 1 31 32
M  V30 26 1 31 33
M  V30 27 1 31 34
M  V30 28 1 31 35
M  V30 29 1 36 37
M  V30 30 1 36 38
M  V30 31 1 36 39
M  V30 32 1 36 40
M  V30 33 1 41 42
M  V30 34 1 41 43
M  V30 35 1 41 44
M  V30 36 1 41 45
M  V30 37 1 46 47
M  V30 38 1 47 48
M  V30 39 1 49 50
M  V30 40 1 50 51
M  V30 41 1 52 53
M  V30 42 1 53 54
M  V30 43 1 55 56
M  V30 44 1 56 57
M  V30 45 1 58 59
M  V30 46 1 59 60
M  V30 47 1 61 62
M  V30 48 1 62 63
M  V30 49 1 64 65
M  V30 50 1 65 66
M  V30 51 1 67 68
M  V30 52 1 68 69
M  V30 53 1 70 71
M  V30 54 1 71 72
M  V30 55 1 73 74
M  V30 56 1 74 75
M  V30 57 1 76 77
M  V30 58 1 77 78
M  V30 59 1 79 80
M  V30 60 1 80 81
M  V30 61 1 82 83
M  V30 62 1 83 84
M  V30 63 1 85 86
M  V30 64 1 86 87
M  V30 65 1 88 89
M  V30 66 1 89 90
M  V30 67 1 91 92
M  V30 68 1 92 93
M  V30 69 1 94 95
M  V30 70 1 95 96
M  V30 71 1 97 98
M  V30 72 1 98 99
M  V30 73 1 2 49
M  V30 74 1 3 70
M  V30 75 1 4 67
M  V30 76 1 5 88
M  V30 77 1 7 46
M  V30 78 1 8 82
M  V30 79 1 9 85
M  V30 80 1 10 79
M  V30 81 1 12 58
M  V30 82 1 13 97
M  V30 83 1 14 64
M  V30 84 1 15 76
M  V30 85 1 17 66
M  V30 86 1 18 73
M  V30 87 1 19 55
M  V30 88 1 20 61
M  V30 89 1 22 48
M  V30 90 1 23 99
M  V30 91 1 24 57
M  V30 92 1 25 52
M  V30 93 1 27 75
M  V30 94 1 28 94
M  V30 95 1 29 69
M  V30 96 1 30 63
M  V30 97 1 32 51
M  V30 98 1 33 96
M  V30 99 1 34 78
M  V30 100 1 35 60
M  V30 101 1 37 54
M  V30 102 1 38 91
M  V30 103 1 39 87
M  V30 104 1 40 90
M  V30 105 1 42 84
M  V30 106 1 43 72
M  V30 107 1 44 93
M  V30 108 1 45 81
M  V30 END BOND
M  V30 END CTAB
M  END

$$$$
