
     RDKit          3D

  0  0  0  0  0  0  0  0  0  0999 V3000
M  V30 BEGIN CTAB
M  V30 COUNTS 99 108 0 0 0
M  V30 BEGIN ATOM
M  V30 1 Pd -2.3015 -4.2552 2.2254 0
M  V30 2 Pb -3.0977 -3.6471 2.1588 0
M  V30 3 Pb -1.6117 -4.9695 2.3657 0
M  V30 4 Pb -1.8110 -3.6721 2.8785 0
M  V30 5 Pb -2.7307 -4.8147 1.5181 0
M  V30 6 Pd 5.0306 -1.0384 -1.1522 0
M  V30 7 Pb 4.4984 -0.2892 -0.7597 0
M  V30 8 Pb 5.2907 -1.3454 -0.2380 0
M  V30 9 Pb 4.5863 -0.9494 -2.0403 0
M  V30 10 Pb 5.4735 -1.8534 -1.5124 0
M  V30 11 Pd -3.0854 5.2483 -3.4464 0
M  V30 12 Pb -3.6197 4.4076 -3.5618 0
M  V30 13 Pb -2.4533 4.9905 -4.1758 0
M  V30 14 Pb -2.5046 6.0258 -3.2114 0
M  V30 15 Pb -3.6666 5.4520 -2.6643 0
M  V30 16 Pd 2.5126 5.7894 1.1031 0
M  V30 17 Pb 1.9799 6.4413 0.5641 0
M  V30 18 Pb 3.0003 5.0866 1.6260 0
M  V30 19 Pb 3.0230 5.5817 0.2673 0
M  V30 20 Pb 1.9813 5.9965 1.9241 0
M  V30 21 Pd 1.2557 2.6551 -2.7655 0
M  V30 22 Pb 1.6323 2.3139 -1.9057 0
M  V30 23 Pb 0.8819 3.0239 -3.6178 0
M  V30 24 Pb 2.0113 3.3088 -2.7672 0
M  V30 25 Pb 0.5008 1.9980 -2.7273 0
M  V30 26 Pd 0.6252 2.5476 4.7268 0
M  V30 27 Pb 1.5588 2.6096 4.3661 0
M  V30 28 Pb -0.3188 2.4812 5.0438 0
M  V30 29 Pb 0.6494 1.5471 4.7744 0
M  V30 30 Pb 0.5631 3.5437 4.6675 0
M  V30 31 Pd -5.5356 0.7820 1.5236 0
M  V30 32 Pb -5.4847 -0.2107 1.6382 0
M  V30 33 Pb -5.3393 0.9187 2.4915 0
M  V30 34 Pb -5.5955 1.7699 1.4069 0
M  V30 35 Pb -5.6308 0.7142 0.5279 0
M  V30 36 Pd -0.9002 -4.6416 -2.7641 0
M  V30 37 Pb -1.2968 -3.7257 -2.7101 0
M  V30 38 Pb -0.4857 -5.5548 -2.7769 0
M  V30 39 Pb -0.1373 -4.2010 -3.2432 0
M  V30 40 Pb -1.6722 -5.0425 -2.2694 0
M  V30 41 Pd 2.4979 -6.9699 0.4721 0
M  V30 42 Pb 3.0490 -6.4243 1.1073 0
M  V30 43 Pb 1.7572 -7.0248 1.1409 0
M  V30 44 Pb 1.9439 -7.4002 -0.2410 0
M  V30 45 Pb 3.2443 -6.8732 -0.1800 0
M  V30 46 Ag -0.0677 1.5075 -2.6950 0
M  V30 47 Fe -0.8452 -0.7375 -2.6821 0
M  V30 48 Ag -1.5275 -3.0132 -2.6772 0
M  V30 49 Ag -4.0785 5.5036 -2.0457 0
M  V30 50 Fe -4.9338 4.1412 -0.3067 0
M  V30 51 Ag -5.6247 2.5000 1.2558 0
M  V30 52 Ag 5.6857 -2.5325 -1.7289 0
M  V30 53 Fe 4.9483 -4.7484 -1.3495 0
M  V30 54 Ag 3.8112 -6.6941 -0.6286 0
M  V30 55 Ag 5.3573 -1.7365 0.3978 0
M  V30 56 Fe 4.5279 -3.8241 1.1727 0
M  V30 57 Ag 3.4804 -5.9349 1.4821 0
M  V30 58 Ag -4.0136 3.7663 -3.5298 0
M  V30 59 Fe -4.8912 2.1775 -1.9915 0
M  V30 60 Ag -5.6403 0.7739 -0.2227 0
M  V30 61 Ag -2.0391 6.5496 -2.9482 0
M  V30 62 Fe -0.2275 6.8545 -1.4449 0
M  V30 63 Ag 1.5641 6.8713 0.1123 0
M  V30 64 Ag 4.1817 -1.0740 -2.6573 0
M  V30 65 Fe 2.2894 -2.3760 -3.2670 0
M  V30 66 Ag 0.3880 -3.7700 -3.5686 0
M  V30 67 Ag -1.3702 -3.2690 3.3384 0
M  V30 68 Fe -0.3951 -1.2286 4.0758 0
M  V30 69 Ag 0.5909 0.7993 4.8331 0
M  V30 70 Ag -1.0354 2.3702 5.2261 0
M  V30 71 Fe -3.1463 1.7354 4.3515 0
M  V30 72 Ag -5.1021 1.0823 3.1804 0
M  V30 73 Ba 4.0653 0.2275 -0.4320 0
M  V30 74 Ga 3.0094 1.1632 -0.8592 0
M  V30 75 Ba 1.9508 2.1077 -1.2598 0
M  V30 76 Ba -3.7802 -3.3295 2.1079 0
M  V30 77 Ga -4.5479 -2.0812 1.9166 0
M  V30 78 Ba -5.4881 -0.9539 1.7416 0
M  V30 79 Ba 3.3619 5.4537 -0.3910 0
M  V30 80 Ga 3.0087 4.6269 -1.5611 0
M  V30 81 Ba 2.5929 3.7754 -2.6922 0
M  V30 82 Ba 3.3253 4.5440 2.0342 0
M  V30 83 Ga 2.8098 3.6082 3.0573 0
M  V30 84 Ba 2.2481 2.6934 4.0750 0
M  V30 85 Ba 1.5851 6.1238 2.5476 0
M  V30 86 Ga 1.0448 5.2294 3.5879 0
M  V30 87 Ba 0.5271 4.2895 4.5992 0
M  V30 88 Ba -3.0308 -5.2017 0.9515 0
M  V30 89 Ga -2.6573 -5.2977 -0.4718 0
M  V30 90 Ba -2.2360 -5.3543 -1.8840 0
M  V30 91 Ba -0.2206 -6.2587 -2.7356 0
M  V30 92 Ga 0.6640 -6.9777 -1.7945 0
M  V30 93 Ba 1.5556 -7.6565 -0.8304 0
M  V30 94 Ba -1.1677 -5.5559 2.5274 0
M  V30 95 Ga 0.0361 -6.2681 2.0537 0
M  V30 96 Ba 1.2258 -7.0541 1.6688 0
M  V30 97 Ba -1.9393 4.7789 -4.6780 0
M  V30 98 Ga -0.6733 4.0421 -4.5040 0
M  V30 99 Ba 0.5757 3.3013 -4.2448 0
M  V30 END ATOM
M  V30 BEGIN BOND
M  V30 1 1 1 2
M  V30 2 1 1 3
M  V30 3 1 1 4
M  V30 4 1 1 5
M  V30 5 1 6 7
M  V30 6 1 6 8
M  V30 7 1 6 9
M  V30 8 1 6 10
M  V30 9 1 11 12
M  V30 10 1 11 13
M  V30 11 1 11 14
M  V30 12 1 11 15
M  V30 13 1 16 17
M  V30 14 1 16 18
M  V30 15 1 16 19
M  V30 16 1 16 20
M  V30 17 1 21 22
M  V30 18 1 21 23
M  V30 19 1 21 24
M  V30 20 1 21 25
M  V30 21 1 26 27
M  V30 22 1 26 28
M  V30 23 1 26 29
M  V30 24 1 26 30
M  V30 25 1 31 32
M  V30 26 1 31 33
M  V30 27 1 31 34
M  V30 28 1 31 35
M  V30 29 1 36 37
M  V30 30 1 36 38
M  V30 31 1 36 39
M  V30 32 1 36 40
M  V30 33 1 41 42
M  V30 34 1 41 43
M  V30 35 1 41 44
M  V30 36 1 41 45
M  V30 37 1 46 47
M  V30 38 1 47 48
M  V30 39 1 49 50
M  V30 40 1 50 51
M  V30 41 1 52 53
M  V30 42 1 53 54
M  V30 43 1 55 56
M  V30 44 1 56 57
M  V30 45 1 58 59
M  V30 46 1 59 60
M  V30 47 1 61 62
M  V30 48 1 62 63
M  V30 49 1 64 65
M  V30 50 1 65 66
M  V30 51 1 67 68
M  V30 52 1 68 69
M  V30 53 1 70 71
M  V30 54 1 71 72
M  V30 55 1 73 74
M  V30 56 1 74 75
M  V30 57 1 76 77
M  V30 58 1 77 78
M  V30 59 1 79 80
M  V30 60 1 80 81
M  V30 61 1 82 83
M  V30 62 1 83 84
M  V30 63 1 85 86
M  V30 64 1 86 87
M  V30 65 1 88 89
M  V30 66 1 89 90
M  V30 67 1 91 92
M  V30 68 1 92 93
M  V30 69 1 94 95
M  V30 70 1 95 96
M  V30 71 1 97 98
M  V30 72 1 98 99
M  V30 73 1 2 76
M  V30 74 1 3 94
M  V30 75 1 4 67
M  V30 76 1 5 88
M  V30 77 1 7 73
M  V30 78 1 8 55
M  V30 79 1 9 64
M  V30 80 1 10 52
M  V30 81 1 12 58
M  V30 82 1 13 97
M  V30 83 1 14 61
M  V30 84 1 15 49
M  V30 85 1 17 63
M  V30 86 1 18 82
M  V30 87 1 19 79
M  V30 88 1 20 85
M  V30 89 1 22 75
M  V30 90 1 23 99
M  V30 91 1 24 81
M  V30 92 1 25 46
M  V30 93 1 27 84
M  V30 94 1 28 70
M  V30 95 1 29 69
M  V30 96 1 30 87
M  V30 97 1 32 78
M  V30 98 1 33 72
M  V30 99 1 34 51
M  V30 100 1 35 60
M  V30 101 1 37 48
M  V30 102 1 38 91
M  V30 103 1 39 66
M  V30 104 1 40 90
M  V30 105 1 42 57
M  V30 106 1 43 96
M  V30 107 1 44 93
M  V30 108 1 45 54
M  V30 END BOND
M  V30 END CTAB
M  END

$$$$
