
     RDKit          3D

  0  0  0  0  0  0  0  0  0  0999 V3000
M  V30 BEGIN CTAB
M  V30 COUNTS 99 108 0 0 0
M  V30 BEGIN ATOM
M  V30 1 Pd 0.7381 5.5386 0.6699 0
M  V30 2 Pb 1.0131 5.5126 -0.2901 0
M  V30 3 Pb 0.4776 5.6828 1.6275 0
M  V30 4 Pb -0.1929 5.7412 0.3710 0
M  V30 5 Pb 1.6330 5.1670 0.9188 0
M  V30 6 Pd -0.4547 -1.6821 7.1875 0
M  V30 7 Pb -0.7543 -2.2109 6.3997 0
M  V30 8 Pb -0.1654 -1.0726 7.9408 0
M  V30 9 Pb 0.4799 -2.0100 7.0215 0
M  V30 10 Pb -1.3884 -1.3676 7.3411 0
M  V30 11 Pd 1.4339 -4.1101 -5.6165 0
M  V30 12 Pb 0.9716 -3.5883 -6.3308 0
M  V30 13 Pb 1.8867 -4.5962 -4.8687 0
M  V30 14 Pb 0.6914 -4.7752 -5.6440 0
M  V30 15 Pb 2.1134 -3.3779 -5.5869 0
M  V30 16 Pd -3.1194 -3.3312 -3.5186 0
M  V30 17 Pb -2.8287 -4.0596 -4.1394 0
M  V30 18 Pb -3.4084 -2.6107 -2.8846 0
M  V30 19 Pb -2.8873 -3.9524 -2.7698 0
M  V30 20 Pb -3.3375 -2.7244 -4.2841 0
M  V30 21 Pd 1.1156 -4.3831 0.0037 0
M  V30 22 Pb 0.5975 -4.1402 0.8200 0
M  V30 23 Pb 1.6265 -4.7167 -0.7926 0
M  V30 24 Pb 0.2640 -4.7901 -0.3293 0
M  V30 25 Pb 1.9624 -3.9758 0.3605 0
M  V30 26 Pd -3.7952 1.9999 -3.9844 0
M  V30 27 Pb -3.9316 1.3537 -3.2309 0
M  V30 28 Pb -3.6297 2.6381 -4.7382 0
M  V30 29 Pb -3.7452 2.7688 -3.3434 0
M  V30 30 Pb -3.8382 1.2352 -4.6287 0
M  V30 31 Pd 0.5353 2.8958 -6.6327 0
M  V30 32 Pb 0.8684 3.6102 -6.0220 0
M  V30 33 Pb -0.3347 3.3731 -6.7514 0
M  V30 34 Pb 1.3600 2.3573 -6.4596 0
M  V30 35 Pb 0.2076 2.1330 -7.1851 0
M  V30 36 Pd 3.7638 -0.6320 3.7493 0
M  V30 37 Pb 3.8172 -1.3143 3.0124 0
M  V30 38 Pb 3.7854 0.0561 4.4708 0
M  V30 39 Pb 3.5406 -1.3361 4.4278 0
M  V30 40 Pb 3.9727 0.1241 3.1274 0
M  V30 41 Pd -0.1675 3.8254 8.1775 0
M  V30 42 Pb -0.0458 2.9768 8.7125 0
M  V30 43 Pb -0.2783 4.5747 7.5264 0
M  V30 44 Pb 0.8044 3.7814 7.9734 0
M  V30 45 Pb -1.1522 3.7617 8.3154 0
M  V30 46 Ag -0.9624 -2.5673 5.7794 0
M  V30 47 Fe -0.3784 -3.2952 3.5998 0
M  V30 48 Ag 0.1536 -4.0415 1.4132 0
M  V30 49 Ag 1.2185 5.5588 -1.0093 0
M  V30 50 Fe 1.1716 4.8340 -3.2685 0
M  V30 51 Ag 1.1262 4.1074 -5.5272 0
M  V30 52 Ag 2.5389 -2.7612 -5.6000 0
M  V30 53 Fe 2.3939 -0.4151 -5.9358 0
M  V30 54 Ag 1.9207 1.8807 -6.3151 0
M  V30 55 Ag -2.0226 -1.0070 7.4858 0
M  V30 56 Fe -2.4714 1.2525 7.9919 0
M  V30 57 Ag -1.8425 3.4951 8.3570 0
M  V30 58 Ag 0.6426 -3.1352 -6.8262 0
M  V30 59 Fe 0.2376 -0.8522 -7.3233 0
M  V30 60 Ag 0.0136 1.4994 -7.5296 0
M  V30 61 Ag -0.8875 5.7776 0.0930 0
M  V30 62 Fe -2.3641 4.6353 -1.3765 0
M  V30 63 Ag -3.6898 3.3577 -2.8786 0
M  V30 64 Ag 2.2721 4.7903 1.0363 0
M  V30 65 Fe 3.2562 2.7963 1.8758 0
M  V30 66 Ag 4.1143 0.7612 2.7543 0
M  V30 67 Ag 3.8292 0.6084 4.9728 0
M  V30 68 Fe 2.7595 2.1639 6.4057 0
M  V30 69 Ag 1.5076 3.6328 7.7809 0
M  V30 70 Ag 0.2760 5.8680 2.3291 0
M  V30 71 Fe -0.0336 5.4748 4.6525 0
M  V30 72 Ag -0.3434 5.0782 6.9753 0
M  V30 73 Ba 2.6271 -3.7010 0.5890 0
M  V30 74 Ga 3.2066 -2.7394 1.5552 0
M  V30 75 Ba 3.9309 -1.8199 2.4627 0
M  V30 76 Ba -2.7013 -4.4662 -2.2553 0
M  V30 77 Ga -1.5385 -4.7534 -1.3924 0
M  V30 78 Ba -0.4020 -5.0862 -0.5111 0
M  V30 79 Ba -3.6314 -2.0628 -2.4198 0
M  V30 80 Ga -3.8272 -0.6031 -2.5442 0
M  V30 81 Ba -4.0214 0.8564 -2.6739 0
M  V30 82 Ba 0.0095 -0.6014 8.5130 0
M  V30 83 Ga 0.0352 0.8663 8.7684 0
M  V30 84 Ba 0.0792 2.3226 9.0804 0
M  V30 85 Ba -3.5004 -2.2618 -4.8526 0
M  V30 86 Ga -3.6854 -0.8031 -4.9831 0
M  V30 87 Ba -3.8691 0.6564 -5.1061 0
M  V30 88 Ba 0.0809 -5.2053 -5.6745 0
M  V30 89 Ga -1.2681 -4.9603 -5.1352 0
M  V30 90 Ba -2.5840 -4.6305 -4.5602 0
M  V30 91 Ba 1.1613 -2.2983 6.8736 0
M  V30 92 Ga 2.2623 -2.0498 5.9159 0
M  V30 93 Ba 3.3828 -1.8304 4.9738 0
M  V30 94 Ba -3.4822 3.1205 -5.2951 0
M  V30 95 Ga -2.2649 3.4293 -6.0702 0
M  V30 96 Ba -1.0127 3.6875 -6.8072 0
M  V30 97 Ba 2.2329 -4.9453 -4.3018 0
M  V30 98 Ga 2.1073 -4.9570 -2.8297 0
M  V30 99 Ba 2.0317 -5.0110 -1.3552 0
M  V30 END ATOM
M  V30 BEGIN BOND
M  V30 1 1 1 2
M  V30 2 1 1 3
M  V30 3 1 1 4
M  V30 4 1 1 5
M  V30 5 1 6 7
M  V30 6 1 6 8
M  V30 7 1 6 9
M  V30 8 1 6 10
M  V30 9 1 11 12
M  V30 10 1 11 13
M  V30 11 1 11 14
M  V30 12 1 11 15
M  V30 13 1 16 17
M  V30 14 1 16 18
M  V30 15 1 16 19
M  V30 16 1 16 20
M  V30 17 1 21 22
M  V30 18 1 21 23
M  V30 19 1 21 24
M  V30 20 1 21 25
M  V30 21 1 26 27
M  V30 22 1 26 28
M  V30 23 1 26 29
M  V30 24 1 26 30
M  V30 25 1 31 32
M  V30 26 1 31 33
M  V30 27 1 31 34
M  V30 28 1 31 35
M  V30 29 1 36 37
M  V30 30 1 36 38
M  V30 31 1 36 39
M  V30 32 1 36 40
M  V30 33 1 41 42
M  V30 34 1 41 43
M  V30 35 1 41 44
M  V30 36 1 41 45
M  V30 37 1 46 47
M  V30 38 1 47 48
M  V30 39 1 49 50
M  V30 40 1 50 51
M  V30 41 1 52 53
M  V30 42 1 53 54
M  V30 43 1 55 56
M  V30 44 1 56 57
M  V30 45 1 58 59
M  V30 46 1 59 60
M  V30 47 1 61 62
M  V30 48 1 62 63
M  V30 49 1 64 65
M  V30 50 1 65 66
M  V30 51 1 67 68
M  V30 52 1 68 69
M  V30 53 1 70 71
M  V30 54 1 71 72
M  V30 55 1 73 74
M  V30 56 1 74 75
M  V30 57 1 76 77
M  V30 58 1 77 78
M  V30 59 1 79 80
M  V30 60 1 80 81
M  V30 61 1 82 83
M  V30 62 1 83 84
M  V30 63 1 85 86
M  V30 64 1 86 87
M  V30 65 1 88 89
M  V30 66 1 89 90
M  V30 67 1 91 92
M  V30 68 1 92 93
M  V30 69 1 94 95
M  V30 70 1 95 96
M  V30 71 1 97 98
M  V30 72 1 98 99
M  V30 73 1 2 49
M  V30 74 1 3 70
M  V30 75 1 4 61
M  V30 76 1 5 64
M  V30 77 1 7 46
M  V30 78 1 8 82
M  V30 79 1 9 91
M  V30 80 1 10 55
M  V30 81 1 12 58
M  V30 82 1 13 97
M  V30 83 1 14 88
M  V30 84 1 15 52
M  V30 85 1 17 90
M  V30 86 1 18 79
M  V30 87 1 19 76
M  V30 88 1 20 85
M  V30 89 1 22 48
M  V30 90 1 23 99
M  V30 91 1 24 78
M  V30 92 1 25 73
M  V30 93 1 27 81
M  V30 94 1 28 94
M  V30 95 1 29 63
M  V30 96 1 30 87
M  V30 97 1 32 51
M  V30 98 1 33 96
M  V30 99 1 34 54
M  V30 100 1 35 60
M  V30 101 1 37 75
M  V30 102 1 38 67
M  V30 103 1 39 93
M  V30 104 1 40 66
M  V30 105 1 42 84
M  V30 106 1 43 72
M  V30 107 1 44 69
M  V30 108 1 45 57
M  V30 END BOND
M  V30 END CTAB
M  END

$$$$
