
     RDKit          3D

  0  0  0  0  0  0  0  0  0  0999 V3000
M  V30 BEGIN CTAB
M  V30 COUNTS 99 108 0 0 0
M  V30 BEGIN ATOM
M  V30 1 Pd 0.0581 -3.1159 -0.2962 0
M  V30 2 Pb 0.7903 -3.7391 -0.0466 0
M  V30 3 Pb -0.1416 -3.0036 0.6794 0
M  V30 4 Pb -0.0809 -3.6141 -1.1494 0
M  V30 5 Pb 0.5735 -2.8251 -1.1063 0
M  V30 6 Pd 1.5643 5.9799 2.4132 0
M  V30 7 Pb 2.1302 5.9699 3.2308 0
M  V30 8 Pb 0.8953 5.4405 2.9398 0
M  V30 9 Pb 2.2932 6.3857 1.8697 0
M  V30 10 Pb 0.9708 5.9367 1.6117 0
M  V30 11 Pd 2.6949 -2.0809 3.5972 0
M  V30 12 Pb 2.0086 -2.5659 4.1501 0
M  V30 13 Pb 2.7980 -2.8982 3.0369 0
M  V30 14 Pb 2.6717 -1.2833 4.1892 0
M  V30 15 Pb 3.3283 -1.5883 2.9668 0
M  V30 16 Pd 0.4235 0.4895 4.2607 0
M  V30 17 Pb -0.4087 0.4280 4.8010 0
M  V30 18 Pb 0.2108 -0.4279 3.9133 0
M  V30 19 Pb 0.2440 1.4876 4.2355 0
M  V30 20 Pb 0.9127 1.0578 4.9156 0
M  V30 21 Pd -5.3695 -2.1865 -2.2324 0
M  V30 22 Pb -5.3182 -2.0412 -1.2238 0
M  V30 23 Pb -5.4229 -1.2055 -2.4277 0
M  V30 24 Pb -5.4094 -2.3275 -3.2222 0
M  V30 25 Pb -5.2085 -3.1555 -2.0844 0
M  V30 26 Pd 4.6954 2.8559 0.5911 0
M  V30 27 Pb 4.6683 3.0118 1.5721 0
M  V30 28 Pb 4.7265 3.8446 0.4379 0
M  V30 29 Pb 4.6872 1.8529 0.7735 0
M  V30 30 Pb 4.6131 2.7312 -0.4001 0
M  V30 31 Pd -0.6734 2.9998 -4.5761 0
M  V30 32 Pb -0.6570 2.6064 -5.4991 0
M  V30 33 Pb -0.7097 3.5083 -3.7164 0
M  V30 34 Pb -1.6679 2.8972 -4.5115 0
M  V30 35 Pb 0.3284 2.9993 -4.5381 0
M  V30 36 Pd -0.6799 -1.7557 -7.3134 0
M  V30 37 Pb 0.1900 -1.6331 -6.8435 0
M  V30 38 Pb -0.6666 -0.8141 -7.6412 0
M  V30 39 Pb -1.6335 -1.8788 -7.5726 0
M  V30 40 Pb -0.7071 -2.6493 -6.8777 0
M  V30 41 Pd -2.7483 -3.0642 3.2145 0
M  V30 42 Pb -1.9801 -3.3662 3.7912 0
M  V30 43 Pb -3.4911 -2.7087 2.6111 0
M  V30 44 Pb -2.6765 -3.8687 2.6360 0
M  V30 45 Pb -2.8858 -2.3044 3.8472 0
M  V30 46 Ag 2.7711 -0.6337 4.5310 0
M  V30 47 Fe 3.6437 1.4290 3.7938 0
M  V30 48 Ag 4.5373 3.0210 2.3013 0
M  V30 49 Ag 0.9625 -2.5965 -1.7095 0
M  V30 50 Fe 0.9971 -2.0659 -4.0250 0
M  V30 51 Ag 0.7427 -1.6074 -6.3415 0
M  V30 52 Ag -0.1898 -3.9739 -1.7956 0
M  V30 53 Fe -0.4638 -3.7749 -4.1407 0
M  V30 54 Ag -0.7042 -3.2498 -6.4384 0
M  V30 55 Ag 0.5037 5.8745 1.0303 0
M  V30 56 Fe -0.0917 4.8833 -1.0431 0
M  V30 57 Ag -0.7784 3.9524 -3.1162 0
M  V30 58 Ag -4.9710 -3.8245 -1.8743 0
M  V30 59 Fe -3.7996 -4.5556 0.0363 0
M  V30 60 Ag -2.7490 -4.4160 2.1422 0
M  V30 61 Ag 2.4316 5.7743 3.8773 0
M  V30 62 Fe 2.1345 3.7250 5.0035 0
M  V30 63 Ag 1.3172 1.5349 5.3176 0
M  V30 64 Ag -5.3962 -0.4917 -2.6636 0
M  V30 65 Fe -3.9765 1.2108 -3.5242 0
M  V30 66 Ag -2.3958 2.7762 -4.3644 0
M  V30 67 Ag -5.4026 -2.3826 -3.9706 0
M  V30 68 Fe -4.0446 -2.2284 -5.9103 0
M  V30 69 Ag -2.3688 -2.0033 -7.5743 0
M  V30 70 Ag 4.4871 2.7034 -1.1417 0
M  V30 71 Fe 2.8408 2.8146 -2.8547 0
M  V30 72 Ag 1.0726 2.9426 -4.4403 0
M  V30 73 Ba 1.3430 -4.1658 0.2064 0
M  V30 74 Ga 2.1608 -3.9094 1.3948 0
M  V30 75 Ba 2.8798 -3.5011 2.6047 0
M  V30 76 Ba 2.8725 6.5779 1.4418 0
M  V30 77 Ga 3.8488 5.6466 0.8539 0
M  V30 78 Ba 4.7363 4.5893 0.3425 0
M  V30 79 Ba -5.3333 -1.9256 -0.4631 0
M  V30 80 Ga -4.6228 -2.2165 0.8234 0
M  V30 81 Ba -4.0640 -2.3972 2.2017 0
M  V30 82 Ba -0.6467 2.3842 -6.2193 0
M  V30 83 Ga -0.6508 1.1407 -7.0147 0
M  V30 84 Ba -0.6542 -0.0907 -7.8286 0
M  V30 85 Ba 1.4860 -2.9611 4.5279 0
M  V30 86 Ga 0.0380 -3.2468 4.3721 0
M  V30 87 Ba -1.4084 -3.5563 4.2498 0
M  V30 88 Ba 0.4214 5.0179 3.3546 0
M  V30 89 Ga 0.2754 3.5939 3.7648 0
M  V30 90 Ba 0.0066 2.2137 4.2537 0
M  V30 91 Ba -1.0706 0.3357 5.1273 0
M  V30 92 Ga -2.0720 -0.6851 4.7944 0
M  V30 93 Ba -2.9710 -1.7590 4.3524 0
M  V30 94 Ba 3.8071 -1.2853 2.4459 0
M  V30 95 Ga 4.2058 -0.0326 1.7286 0
M  V30 96 Ba 4.7474 1.0986 0.9103 0
M  V30 97 Ba -0.2712 -2.9633 1.4192 0
M  V30 98 Ga -0.1132 -1.9986 2.5287 0
M  V30 99 Ba -0.0017 -1.1233 3.7152 0
M  V30 END ATOM
M  V30 BEGIN BOND
M  V30 1 1 1 2
M  V30 2 1 1 3
M  V30 3 1 1 4
M  V30 4 1 1 5
M  V30 5 1 6 7
M  V30 6 1 6 8
M  V30 7 1 6 9
M  V30 8 1 6 10
M  V30 9 1 11 12
M  V30 10 1 11 13
M  V30 11 1 11 14
M  V30 12 1 11 15
M  V30 13 1 16 17
M  V30 14 1 16 18
M  V30 15 1 16 19
M  V30 16 1 16 20
M  V30 17 1 21 22
M  V30 18 1 21 23
M  V30 19 1 21 24
M  V30 20 1 21 25
M  V30 21 1 26 27
M  V30 22 1 26 28
M  V30 23 1 26 29
M  V30 24 1 26 30
M  V30 25 1 31 32
M  V30 26 1 31 33
M  V30 27 1 31 34
M  V30 28 1 31 35
M  V30 29 1 36 37
M  V30 30 1 36 38
M  V30 31 1 36 39
M  V30 32 1 36 40
M  V30 33 1 41 42
M  V30 34 1 41 43
M  V30 35 1 41 44
M  V30 36 1 41 45
M  V30 37 1 46 47
M  V30 38 1 47 48
M  V30 39 1 49 50
M  V30 40 1 50 51
M  V30 41 1 52 53
M  V30 42 1 53 54
M  V30 43 1 55 56
M  V30 44 1 56 57
M  V30 45 1 58 59
M  V30 46 1 59 60
M  V30 47 1 61 62
M  V30 48 1 62 63
M  V30 49 1 64 65
M  V30 50 1 65 66
M  V30 51 1 67 68
M  V30 52 1 68 69
M  V30 53 1 70 71
M  V30 54 1 71 72
M  V30 55 1 73 74
M  V30 56 1 74 75
M  V30 57 1 76 77
M  V30 58 1 77 78
M  V30 59 1 79 80
M  V30 60 1 80 81
M  V30 61 1 82 83
M  V30 62 1 83 84
M  V30 63 1 85 86
M  V30 64 1 86 87
M  V30 65 1 88 89
M  V30 66 1 89 90
M  V30 67 1 91 92
M  V30 68 1 92 93
M  V30 69 1 94 95
M  V30 70 1 95 96
M  V30 71 1 97 98
M  V30 72 1 98 99
M  V30 73 1 2 73
M  V30 74 1 3 97
M  V30 75 1 4 52
M  V30 76 1 5 49
M  V30 77 1 7 61
M  V30 78 1 8 88
M  V30 79 1 9 76
M  V30 80 1 10 55
M  V30 81 1 12 85
M  V30 82 1 13 75
M  V30 83 1 14 46
M  V30 84 1 15 94
M  V30 85 1 17 91
M  V30 86 1 18 99
M  V30 87 1 19 90
M  V30 88 1 20 63
M  V30 89 1 22 79
M  V30 90 1 23 64
M  V30 91 1 24 67
M  V30 92 1 25 58
M  V30 93 1 27 48
M  V30 94 1 28 78
M  V30 95 1 29 96
M  V30 96 1 30 70
M  V30 97 1 32 82
M  V30 98 1 33 57
M  V30 99 1 34 66
M  V30 100 1 35 72
M  V30 101 1 37 51
M  V30 102 1 38 84
M  V30 103 1 39 69
M  V30 104 1 40 54
M  V30 105 1 42 87
M  V30 106 1 43 81
M  V30 107 1 44 60
M  V30 108 1 45 93
M  V30 END BOND
M  V30 END CTAB
M  END

$$$$
