
     RDKit          3D

  0  0  0  0  0  0  0  0  0  0999 V3000
M  V30 BEGIN CTAB
M  V30 COUNTS 99 108 0 0 0
M  V30 BEGIN ATOM
M  V30 1 Pd -0.2942 2.5658 -3.1513 0
M  V30 2 Pb -0.9607 3.3144 -3.0906 0
M  V30 3 Pb 0.3158 1.7818 -3.2756 0
M  V30 4 Pb -0.7860 2.2109 -3.9414 0
M  V30 5 Pb 0.1440 2.8743 -2.3008 0
M  V30 6 Pd 7.5414 -1.9522 -1.2459 0
M  V30 7 Pb 6.8667 -2.3661 -0.6354 0
M  V30 8 Pb 7.4414 -2.7209 -1.8795 0
M  V30 9 Pb 7.6065 -1.1552 -0.6415 0
M  V30 10 Pb 8.1941 -1.5482 -1.8903 0
M  V30 11 Pd -4.7877 1.0893 5.6452 0
M  V30 12 Pb -4.5287 1.9422 5.1963 0
M  V30 13 Pb -3.9423 1.0993 6.1691 0
M  V30 14 Pb -4.9750 0.1839 6.0237 0
M  V30 15 Pb -5.5722 1.0541 5.0262 0
M  V30 16 Pd -3.4145 -3.4215 3.5404 0
M  V30 17 Pb -3.7589 -3.2153 4.4580 0
M  V30 18 Pb -4.2987 -3.1487 3.1600 0
M  V30 19 Pb -2.5178 -3.7013 3.8979 0
M  V30 20 Pb -3.1392 -3.6335 2.6019 0
M  V30 21 Pd 1.9239 -1.5512 4.2122 0
M  V30 22 Pb 2.4845 -2.0453 3.5482 0
M  V30 23 Pb 1.3928 -1.0700 4.9051 0
M  V30 24 Pb 1.3530 -2.3674 4.3455 0
M  V30 25 Pb 2.4787 -0.7235 4.1010 0
M  V30 26 Pd -5.9460 -1.3971 -2.9693 0
M  V30 27 Pb -6.4144 -1.5432 -2.0993 0
M  V30 28 Pb -6.5260 -0.6199 -3.2093 0
M  V30 29 Pb -5.4117 -1.1944 -3.7848 0
M  V30 30 Pb -5.2827 -2.0851 -2.6719 0
M  V30 31 Pd -5.4244 3.4238 -1.1627 0
M  V30 32 Pb -4.7710 3.8965 -1.7603 0
M  V30 33 Pb -5.9599 3.0645 -1.9299 0
M  V30 34 Pb -6.0336 2.9493 -0.5251 0
M  V30 35 Pb -4.9444 3.7760 -0.3616 0
M  V30 36 Pd 4.2252 2.2444 0.4749 0
M  V30 37 Pb 4.0633 2.0248 1.4395 0
M  V30 38 Pb 4.4082 2.4905 -0.4743 0
M  V30 39 Pb 5.1588 1.8864 0.5731 0
M  V30 40 Pb 3.3048 2.6290 0.3743 0
M  V30 41 Pd 6.1410 -1.0406 -5.4921 0
M  V30 42 Pb 6.3086 -2.0162 -5.3705 0
M  V30 43 Pb 5.1602 -1.1724 -5.3627 0
M  V30 44 Pb 5.9757 -0.0613 -5.4487 0
M  V30 45 Pb 7.1223 -0.8821 -5.4149 0
M  V30 46 Ag 6.3479 -2.6860 -0.1990 0
M  V30 47 Fe 4.6335 -2.5381 1.4372 0
M  V30 48 Ag 2.9136 -2.4328 3.0711 0
M  V30 49 Ag -4.9380 -2.9517 2.8201 0
M  V30 50 Fe -5.9264 -2.2991 0.7619 0
M  V30 51 Ag -6.6646 -1.6652 -1.4040 0
M  V30 52 Ag -6.0874 1.0734 4.4813 0
M  V30 53 Fe -6.3994 1.7915 2.2381 0
M  V30 54 Ag -6.4382 2.6037 0.0055 0
M  V30 55 Ag -4.3306 2.5303 4.7791 0
M  V30 56 Fe -4.4122 3.3899 2.5695 0
M  V30 57 Ag -4.6476 3.9971 0.2884 0
M  V30 58 Ag -3.0299 -3.7714 1.8719 0
M  V30 59 Fe -3.8139 -3.2399 -0.3075 0
M  V30 60 Ag -4.7707 -2.5429 -2.3680 0
M  V30 61 Ag -1.1943 1.8669 -4.4614 0
M  V30 62 Fe -3.0750 0.4378 -4.6308 0
M  V30 63 Ag -4.9713 -0.9490 -4.3334 0
M  V30 64 Ag 4.5487 2.6582 -1.1889 0
M  V30 65 Fe 5.1783 1.8205 -3.3137 0
M  V30 66 Ag 5.8214 0.6424 -5.2653 0
M  V30 67 Ag 0.6849 1.1584 -3.4779 0
M  V30 68 Fe 2.5607 -0.0333 -4.3182 0
M  V30 69 Ag 4.4439 -1.2199 -5.1492 0
M  V30 70 Ag -3.2685 1.0529 6.4818 0
M  V30 71 Fe -1.0935 0.2130 6.0609 0
M  V30 72 Ag 0.9949 -0.7064 5.4220 0
M  V30 73 Ba -1.4798 3.8617 -3.1005 0
M  V30 74 Ga -2.8683 4.0478 -2.6211 0
M  V30 75 Ba -4.2568 4.2761 -2.1603 0
M  V30 76 Ba 2.8726 -0.0829 4.0723 0
M  V30 77 Ga 3.4119 0.8687 3.0780 0
M  V30 78 Ba 3.9930 1.8849 2.1755 0
M  V30 79 Ba -1.8492 -3.9392 4.1553 0
M  V30 80 Ga -0.4674 -3.4244 4.2961 0
M  V30 81 Ba 0.9361 -2.9841 4.4702 0
M  V30 82 Ba 8.6454 -1.2779 -2.4279 0
M  V30 83 Ga 8.3398 -0.9944 -3.8425 0
M  V30 84 Ba 7.8321 -0.7729 -5.2088 0
M  V30 85 Ba 7.3499 -3.2504 -2.4041 0
M  V30 86 Ga 6.9134 -3.0898 -3.8022 0
M  V30 87 Ba 6.4635 -2.7141 -5.1536 0
M  V30 88 Ba -5.0314 -0.5152 6.2879 0
M  V30 89 Ga -4.5669 -1.8010 5.7311 0
M  V30 90 Ba -4.0784 -3.0522 5.1188 0
M  V30 91 Ba 7.6488 -0.5523 -0.1934 0
M  V30 92 Ga 6.7350 0.5342 0.2236 0
M  V30 93 Ba 5.8659 1.6436 0.6743 0
M  V30 94 Ba 0.3932 3.1221 -1.6322 0
M  V30 95 Ga 1.5401 2.9991 -0.7049 0
M  V30 96 Ba 2.6292 2.9513 0.2963 0
M  V30 97 Ba -6.8790 0.0140 -3.3972 0
M  V30 98 Ga -6.6690 1.4047 -2.9471 0
M  V30 99 Ba -6.4110 2.7739 -2.4574 0
M  V30 END ATOM
M  V30 BEGIN BOND
M  V30 1 1 1 2
M  V30 2 1 1 3
M  V30 3 1 1 4
M  V30 4 1 1 5
M  V30 5 1 6 7
M  V30 6 1 6 8
M  V30 7 1 6 9
M  V30 8 1 6 10
M  V30 9 1 11 12
M  V30 10 1 11 13
M  V30 11 1 11 14
M  V30 12 1 11 15
M  V30 13 1 16 17
M  V30 14 1 16 18
M  V30 15 1 16 19
M  V30 16 1 16 20
M  V30 17 1 21 22
M  V30 18 1 21 23
M  V30 19 1 21 24
M  V30 20 1 21 25
M  V30 21 1 26 27
M  V30 22 1 26 28
M  V30 23 1 26 29
M  V30 24 1 26 30
M  V30 25 1 31 32
M  V30 26 1 31 33
M  V30 27 1 31 34
M  V30 28 1 31 35
M  V30 29 1 36 37
M  V30 30 1 36 38
M  V30 31 1 36 39
M  V30 32 1 36 40
M  V30 33 1 41 42
M  V30 34 1 41 43
M  V30 35 1 41 44
M  V30 36 1 41 45
M  V30 37 1 46 47
M  V30 38 1 47 48
M  V30 39 1 49 50
M  V30 40 1 50 51
M  V30 41 1 52 53
M  V30 42 1 53 54
M  V30 43 1 55 56
M  V30 44 1 56 57
M  V30 45 1 58 59
M  V30 46 1 59 60
M  V30 47 1 61 62
M  V30 48 1 62 63
M  V30 49 1 64 65
M  V30 50 1 65 66
M  V30 51 1 67 68
M  V30 52 1 68 69
M  V30 53 1 70 71
M  V30 54 1 71 72
M  V30 55 1 73 74
M  V30 56 1 74 75
M  V30 57 1 76 77
M  V30 58 1 77 78
M  V30 59 1 79 80
M  V30 60 1 80 81
M  V30 61 1 82 83
M  V30 62 1 83 84
M  V30 63 1 85 86
M  V30 64 1 86 87
M  V30 65 1 88 89
M  V30 66 1 89 90
M  V30 67 1 91 92
M  V30 68 1 92 93
M  V30 69 1 94 95
M  V30 70 1 95 96
M  V30 71 1 97 98
M  V30 72 1 98 99
M  V30 73 1 2 73
M  V30 74 1 3 67
M  V30 75 1 4 61
M  V30 76 1 5 94
M  V30 77 1 7 46
M  V30 78 1 8 85
M  V30 79 1 9 91
M  V30 80 1 10 82
M  V30 81 1 12 55
M  V30 82 1 13 70
M  V30 83 1 14 88
M  V30 84 1 15 52
M  V30 85 1 17 90
M  V30 86 1 18 49
M  V30 87 1 19 79
M  V30 88 1 20 58
M  V30 89 1 22 48
M  V30 90 1 23 72
M  V30 91 1 24 81
M  V30 92 1 25 76
M  V30 93 1 27 51
M  V30 94 1 28 97
M  V30 95 1 29 63
M  V30 96 1 30 60
M  V30 97 1 32 75
M  V30 98 1 33 99
M  V30 99 1 34 54
M  V30 100 1 35 57
M  V30 101 1 37 78
M  V30 102 1 38 64
M  V30 103 1 39 93
M  V30 104 1 40 96
M  V30 105 1 42 87
M  V30 106 1 43 69
M  V30 107 1 44 66
M  V30 108 1 45 84
M  V30 END BOND
M  V30 END CTAB
M  END

$$$$
