
     RDKit          3D

  0  0  0  0  0  0  0  0  0  0999 V3000
M  V30 BEGIN CTAB
M  V30 COUNTS 99 108 0 0 0
M  V30 BEGIN ATOM
M  V30 1 Pd 1.4041 5.3077 -4.4432 0
M  V30 2 Pb 0.8286 6.1163 -4.3289 0
M  V30 3 Pb 0.5929 4.7317 -4.5568 0
M  V30 4 Pb 2.2083 5.8946 -4.3988 0
M  V30 5 Pb 1.9930 4.5067 -4.2618 0
M  V30 6 Pd -0.0822 -5.2577 7.5899 0
M  V30 7 Pb 0.8608 -5.2067 7.2696 0
M  V30 8 Pb -0.2152 -6.1198 7.0830 0
M  V30 9 Pb -1.0387 -5.2889 7.8667 0
M  V30 10 Pb 0.0033 -4.2965 7.8456 0
M  V30 11 Pd 2.7420 -0.7407 3.0946 0
M  V30 12 Pb 3.2394 -1.4553 3.5791 0
M  V30 13 Pb 2.1719 -0.0869 2.5989 0
M  V30 14 Pb 2.2238 -0.6061 3.9428 0
M  V30 15 Pb 3.2893 -0.9072 2.2748 0
M  V30 16 Pd 3.2705 3.9257 0.2522 0
M  V30 17 Pb 2.5236 3.2954 0.4512 0
M  V30 18 Pb 4.0147 4.5629 0.0670 0
M  V30 19 Pb 3.4392 3.4683 -0.6352 0
M  V30 20 Pb 2.9408 4.5184 0.9829 0
M  V30 21 Pd -1.3527 5.8924 -0.2143 0
M  V30 22 Pb -2.1265 5.6730 -0.8007 0
M  V30 23 Pb -0.5974 6.0937 0.4191 0
M  V30 24 Pb -1.0598 6.5650 -0.9034 0
M  V30 25 Pb -1.6966 5.1804 0.4083 0
M  V30 26 Pd 2.4304 -2.7410 -2.2588 0
M  V30 27 Pb 3.0414 -2.4078 -1.5395 0
M  V30 28 Pb 1.8709 -3.0720 -3.0180 0
M  V30 29 Pb 2.1591 -3.5350 -1.7078 0
M  V30 30 Pb 2.6774 -1.9447 -2.8149 0
M  V30 31 Pd -2.4846 -6.4109 2.6611 0
M  V30 32 Pb -1.9345 -6.8491 3.3941 0
M  V30 33 Pb -3.2602 -6.4048 3.2864 0
M  V30 34 Pb -3.0564 -5.9542 1.9791 0
M  V30 35 Pb -1.6856 -6.3872 2.0536 0
M  V30 36 Pd -0.4203 -0.0519 -5.6048 0
M  V30 37 Pb -0.2045 -1.0262 -5.6408 0
M  V30 38 Pb -0.6746 0.9104 -5.4860 0
M  V30 39 Pb 0.5345 0.1351 -5.3753 0
M  V30 40 Pb -1.3812 -0.2729 -5.7607 0
M  V30 41 Pd -5.4369 -0.0342 -1.0106 0
M  V30 42 Pb -5.0795 0.3589 -0.1595 0
M  V30 43 Pb -5.6322 -0.3659 -1.9293 0
M  V30 44 Pb -5.4669 0.8955 -1.3661 0
M  V30 45 Pb -5.3662 -0.9835 -0.6998 0
M  V30 46 Ag 2.8313 6.2645 -4.2405 0
M  V30 47 Fe 4.1708 6.0984 -2.3168 0
M  V30 48 Ag 4.4700 5.0678 -0.2269 0
M  V30 49 Ag -1.7764 -5.3614 7.8918 0
M  V30 50 Fe -3.2478 -5.8674 6.1223 0
M  V30 51 Ag -3.7215 -6.3533 3.8655 0
M  V30 52 Ag 1.5432 -5.0899 6.9898 0
M  V30 53 Fe 2.7139 -3.6528 5.5135 0
M  V30 54 Ag 3.5018 -2.0255 3.9818 0
M  V30 55 Ag 0.0955 -3.5529 7.8431 0
M  V30 56 Fe 0.9507 -1.9174 6.3456 0
M  V30 57 Ag 1.8839 -0.5823 4.6144 0
M  V30 58 Ag -3.5280 -5.6086 1.5084 0
M  V30 59 Fe -4.3863 -3.6331 0.5047 0
M  V30 60 Ag -5.3168 -1.7189 -0.5520 0
M  V30 61 Ag -2.0083 4.6222 0.8133 0
M  V30 62 Fe -3.3653 2.6658 0.7286 0
M  V30 63 Ag -4.7356 0.7469 0.3887 0
M  V30 64 Ag -2.7235 5.4488 -1.1859 0
M  V30 65 Fe -4.1630 3.5956 -1.5081 0
M  V30 66 Ag -5.4239 1.5936 -1.6240 0
M  V30 67 Ag 1.9420 -4.1406 -1.3148 0
M  V30 68 Fe 0.4227 -5.2344 0.1539 0
M  V30 69 Ag -1.0691 -6.3691 1.6198 0
M  V30 70 Ag -2.1076 -0.4488 -5.7854 0
M  V30 71 Fe -4.0218 -0.5852 -4.3945 0
M  V30 72 Ag -5.6258 -0.5547 -2.6503 0
M  V30 73 Ba 2.6022 5.0170 1.4263 0
M  V30 74 Ga 1.2751 5.6366 1.2215 0
M  V30 75 Ba -0.0598 6.2082 0.9388 0
M  V30 76 Ba -0.0350 4.3377 -4.6799 0
M  V30 77 Ga -0.4291 2.9549 -5.0204 0
M  V30 78 Ba -0.9298 1.6074 -5.3616 0
M  V30 79 Ba 1.7169 0.3660 2.2124 0
M  V30 80 Ga 1.8476 1.6005 1.4200 0
M  V30 81 Ba 1.9612 2.8348 0.6247 0
M  V30 82 Ba 0.4397 6.7135 -4.0916 0
M  V30 83 Ga -0.2517 6.9117 -2.7960 0
M  V30 84 Ba -0.9192 7.0370 -1.4787 0
M  V30 85 Ba 2.8442 -1.3465 -3.2392 0
M  V30 86 Ga 2.0742 -0.5402 -4.2072 0
M  V30 87 Ba 1.2480 0.2238 -5.1630 0
M  V30 88 Ba 2.4415 3.9377 -4.0235 0
M  V30 89 Ga 2.9820 3.5486 -2.6857 0
M  V30 90 Ba 3.5113 3.1778 -1.3382 0
M  V30 91 Ba 1.4812 -3.2946 -3.6185 0
M  V30 92 Ga 0.7046 -2.5593 -4.6324 0
M  V30 93 Ba -0.0565 -1.7593 -5.6083 0
M  V30 94 Ba -0.3208 -6.7194 6.6271 0
M  V30 95 Ga -0.9468 -6.9333 5.2891 0
M  V30 96 Ba -1.5556 -7.2078 3.9544 0
M  V30 97 Ba 3.7298 -1.0477 1.6847 0
M  V30 98 Ga 3.5901 -1.5989 0.3232 0
M  V30 99 Ba 3.5424 -2.1383 -1.0493 0
M  V30 END ATOM
M  V30 BEGIN BOND
M  V30 1 1 1 2
M  V30 2 1 1 3
M  V30 3 1 1 4
M  V30 4 1 1 5
M  V30 5 1 6 7
M  V30 6 1 6 8
M  V30 7 1 6 9
M  V30 8 1 6 10
M  V30 9 1 11 12
M  V30 10 1 11 13
M  V30 11 1 11 14
M  V30 12 1 11 15
M  V30 13 1 16 17
M  V30 14 1 16 18
M  V30 15 1 16 19
M  V30 16 1 16 20
M  V30 17 1 21 22
M  V30 18 1 21 23
M  V30 19 1 21 24
M  V30 20 1 21 25
M  V30 21 1 26 27
M  V30 22 1 26 28
M  V30 23 1 26 29
M  V30 24 1 26 30
M  V30 25 1 31 32
M  V30 26 1 31 33
M  V30 27 1 31 34
M  V30 28 1 31 35
M  V30 29 1 36 37
M  V30 30 1 36 38
M  V30 31 1 36 39
M  V30 32 1 36 40
M  V30 33 1 41 42
M  V30 34 1 41 43
M  V30 35 1 41 44
M  V30 36 1 41 45
M  V30 37 1 46 47
M  V30 38 1 47 48
M  V30 39 1 49 50
M  V30 40 1 50 51
M  V30 41 1 52 53
M  V30 42 1 53 54
M  V30 43 1 55 56
M  V30 44 1 56 57
M  V30 45 1 58 59
M  V30 46 1 59 60
M  V30 47 1 61 62
M  V30 48 1 62 63
M  V30 49 1 64 65
M  V30 50 1 65 66
M  V30 51 1 67 68
M  V30 52 1 68 69
M  V30 53 1 70 71
M  V30 54 1 71 72
M  V30 55 1 73 74
M  V30 56 1 74 75
M  V30 57 1 76 77
M  V30 58 1 77 78
M  V30 59 1 79 80
M  V30 60 1 80 81
M  V30 61 1 82 83
M  V30 62 1 83 84
M  V30 63 1 85 86
M  V30 64 1 86 87
M  V30 65 1 88 89
M  V30 66 1 89 90
M  V30 67 1 91 92
M  V30 68 1 92 93
M  V30 69 1 94 95
M  V30 70 1 95 96
M  V30 71 1 97 98
M  V30 72 1 98 99
M  V30 73 1 2 82
M  V30 74 1 3 76
M  V30 75 1 4 46
M  V30 76 1 5 88
M  V30 77 1 7 52
M  V30 78 1 8 94
M  V30 79 1 9 49
M  V30 80 1 10 55
M  V30 81 1 12 54
M  V30 82 1 13 79
M  V30 83 1 14 57
M  V30 84 1 15 97
M  V30 85 1 17 81
M  V30 86 1 18 48
M  V30 87 1 19 90
M  V30 88 1 20 73
M  V30 89 1 22 64
M  V30 90 1 23 75
M  V30 91 1 24 84
M  V30 92 1 25 61
M  V30 93 1 27 99
M  V30 94 1 28 91
M  V30 95 1 29 67
M  V30 96 1 30 85
M  V30 97 1 32 96
M  V30 98 1 33 51
M  V30 99 1 34 58
M  V30 100 1 35 69
M  V30 101 1 37 93
M  V30 102 1 38 78
M  V30 103 1 39 87
M  V30 104 1 40 70
M  V30 105 1 42 63
M  V30 106 1 43 72
M  V30 107 1 44 66
M  V30 108 1 45 60
M  V30 END BOND
M  V30 END CTAB
M  END

$$$$
