
     RDKit          3D

  0  0  0  0  0  0  0  0  0  0999 V3000
M  V30 BEGIN CTAB
M  V30 COUNTS 99 108 0 0 0
M  V30 BEGIN ATOM
M  V30 1 Pd -0.5516 -4.6428 2.0247 0
M  V30 2 Pb 0.3985 -4.8499 1.7928 0
M  V30 3 Pb -0.8108 -4.8524 1.0818 0
M  V30 4 Pb -0.2774 -4.4424 2.9671 0
M  V30 5 Pb -1.5020 -4.4216 2.2472 0
M  V30 6 Pd -3.8649 -0.5451 -7.0052 0
M  V30 7 Pb -2.9971 -0.5184 -6.5116 0
M  V30 8 Pb -4.7646 -0.5840 -7.4347 0
M  V30 9 Pb -4.1361 0.2498 -6.4709 0
M  V30 10 Pb -3.6985 -1.4984 -7.2850 0
M  V30 11 Pd 4.1097 3.9308 -1.8669 0
M  V30 12 Pb 4.8532 3.3674 -1.4519 0
M  V30 13 Pb 3.3314 4.4272 -2.2534 0
M  V30 14 Pb 4.1856 4.6174 -1.1415 0
M  V30 15 Pb 4.0400 3.2768 -2.6102 0
M  V30 16 Pd 1.9571 6.1859 5.0091 0
M  V30 17 Pb 2.5058 6.5569 4.2617 0
M  V30 18 Pb 2.7820 5.9363 5.5095 0
M  V30 19 Pb 1.1366 6.3280 4.4599 0
M  V30 20 Pb 1.4432 5.6725 5.6978 0
M  V30 21 Pd -0.9166 3.0183 -1.0746 0
M  V30 22 Pb -0.7529 2.3052 -1.7569 0
M  V30 23 Pb -0.4972 3.6917 -1.6855 0
M  V30 24 Pb -1.0794 3.7389 -0.4014 0
M  V30 25 Pb -1.2791 2.3505 -0.4207 0
M  V30 26 Pd 3.4149 -0.2753 7.0642 0
M  V30 27 Pb 3.9695 0.5462 7.1780 0
M  V30 28 Pb 4.1844 -0.7184 6.6078 0
M  V30 29 Pb 2.8316 -1.0749 6.9130 0
M  V30 30 Pb 2.6437 0.2630 7.4060 0
M  V30 31 Pd 5.9006 -1.4469 0.0288 0
M  V30 32 Pb 5.5586 -2.3747 0.1654 0
M  V30 33 Pb 6.1370 -1.4331 1.0008 0
M  V30 34 Pb 5.6614 -1.5034 -0.9329 0
M  V30 35 Pb 6.1472 -0.4653 -0.0990 0
M  V30 36 Pd -4.5711 -1.3878 0.0014 0
M  V30 37 Pb -3.8764 -0.7775 0.3855 0
M  V30 38 Pb -5.2617 -2.0274 -0.3498 0
M  V30 39 Pb -4.7270 -0.7262 -0.7368 0
M  V30 40 Pb -4.4198 -2.0284 0.7567 0
M  V30 41 Pd -5.3728 -4.7603 -4.2200 0
M  V30 42 Pb -6.2256 -4.5842 -4.7067 0
M  V30 43 Pb -4.5141 -4.9475 -3.7433 0
M  V30 44 Pb -5.8520 -4.6687 -3.3474 0
M  V30 45 Pb -4.8747 -4.6858 -5.0994 0
M  V30 46 Ag -2.3868 -0.4631 -6.0814 0
M  V30 47 Fe -1.4454 0.6260 -4.1930 0
M  V30 48 Ag -0.6328 1.7912 -2.2903 0
M  V30 49 Ag 1.1113 -4.9841 1.6029 0
M  V30 50 Fe 3.2102 -4.0912 0.9452 0
M  V30 51 Ag 5.2359 -3.0367 0.2980 0
M  V30 52 Ag 0.5521 6.3660 3.9956 0
M  V30 53 Fe -0.3951 5.3810 2.0554 0
M  V30 54 Ag -1.1881 4.2746 0.1114 0
M  V30 55 Ag 3.3544 5.6261 5.8737 0
M  V30 56 Fe 4.0256 3.4856 6.6382 0
M  V30 57 Ag 4.3131 1.2078 7.2272 0
M  V30 58 Ag 4.0400 2.7078 -3.0818 0
M  V30 59 Fe 4.6600 0.4532 -2.8198 0
M  V30 60 Ag 5.4481 -1.4211 -1.6355 0
M  V30 61 Ag -5.4615 -0.7646 -7.6131 0
M  V30 62 Fe -6.6893 -2.5321 -6.6609 0
M  V30 63 Ag -6.7668 -4.3364 -5.1509 0
M  V30 64 Ag 1.1413 5.1878 6.1859 0
M  V30 65 Fe 1.4693 2.9831 7.0100 0
M  V30 66 Ag 2.1165 0.7687 7.5799 0
M  V30 67 Ag 4.2279 5.1526 -0.6153 0
M  V30 68 Fe 3.6066 6.0017 1.5146 0
M  V30 69 Ag 2.9159 6.7429 3.6633 0
M  V30 70 Ag -4.3504 0.6916 -5.9087 0
M  V30 71 Fe -4.6306 0.3979 -3.5683 0
M  V30 72 Ag -4.8122 -0.2087 -1.2781 0
M  V30 73 Ag -0.0609 -4.3007 3.6729 0
M  V30 74 Fe 1.1588 -2.9862 5.2328 0
M  V30 75 Ag 2.3829 -1.6629 6.7817 0
M  V30 76 Ag -0.9774 -5.0204 0.3700 0
M  V30 77 Fe -2.4479 -5.0410 -1.4949 0
M  V30 78 Ag -3.8640 -5.0972 -3.4006 0
M  V30 79 Ag 4.7586 -0.9697 6.1983 0
M  V30 80 Fe 5.5777 -1.2584 3.9881 0
M  V30 81 Ag 6.2865 -1.4951 1.7339 0
M  V30 82 Ba -1.5087 1.8830 0.1224 0
M  V30 83 Ga -2.4533 0.7715 0.3552 0
M  V30 84 Ba -3.3559 -0.3433 0.7089 0
M  V30 85 Ba -3.6270 -2.2471 -7.3928 0
M  V30 86 Ga -4.0622 -3.4223 -6.5828 0
M  V30 87 Ba -4.5045 -4.5861 -5.7603 0
M  V30 88 Ba 5.4296 2.9626 -1.1396 0
M  V30 89 Ga 5.8131 1.5861 -0.6853 0
M  V30 90 Ba 6.3427 0.2739 -0.1892 0
M  V30 91 Ba -2.2135 -4.2540 2.4184 0
M  V30 92 Ga -3.2602 -3.3752 1.8593 0
M  V30 93 Ba -4.3313 -2.5081 1.3288 0
M  V30 94 Ba -5.7711 -2.5493 -0.5450 0
M  V30 95 Ga -5.9850 -3.5321 -1.6291 0
M  V30 96 Ba -6.2135 -4.5179 -2.7075 0
M  V30 97 Ba 2.7198 4.7591 -2.5357 0
M  V30 98 Ga 1.2776 4.5032 -2.3478 0
M  V30 99 Ba -0.1488 4.1979 -2.1178 0
M  V30 END ATOM
M  V30 BEGIN BOND
M  V30 1 1 1 2
M  V30 2 1 1 3
M  V30 3 1 1 4
M  V30 4 1 1 5
M  V30 5 1 6 7
M  V30 6 1 6 8
M  V30 7 1 6 9
M  V30 8 1 6 10
M  V30 9 1 11 12
M  V30 10 1 11 13
M  V30 11 1 11 14
M  V30 12 1 11 15
M  V30 13 1 16 17
M  V30 14 1 16 18
M  V30 15 1 16 19
M  V30 16 1 16 20
M  V30 17 1 21 22
M  V30 18 1 21 23
M  V30 19 1 21 24
M  V30 20 1 21 25
M  V30 21 1 26 27
M  V30 22 1 26 28
M  V30 23 1 26 29
M  V30 24 1 26 30
M  V30 25 1 31 32
M  V30 26 1 31 33
M  V30 27 1 31 34
M  V30 28 1 31 35
M  V30 29 1 36 37
M  V30 30 1 36 38
M  V30 31 1 36 39
M  V30 32 1 36 40
M  V30 33 1 41 42
M  V30 34 1 41 43
M  V30 35 1 41 44
M  V30 36 1 41 45
M  V30 37 1 46 47
M  V30 38 1 47 48
M  V30 39 1 49 50
M  V30 40 1 50 51
M  V30 41 1 52 53
M  V30 42 1 53 54
M  V30 43 1 55 56
M  V30 44 1 56 57
M  V30 45 1 58 59
M  V30 46 1 59 60
M  V30 47 1 61 62
M  V30 48 1 62 63
M  V30 49 1 64 65
M  V30 50 1 65 66
M  V30 51 1 67 68
M  V30 52 1 68 69
M  V30 53 1 70 71
M  V30 54 1 71 72
M  V30 55 1 73 74
M  V30 56 1 74 75
M  V30 57 1 76 77
M  V30 58 1 77 78
M  V30 59 1 79 80
M  V30 60 1 80 81
M  V30 61 1 82 83
M  V30 62 1 83 84
M  V30 63 1 85 86
M  V30 64 1 86 87
M  V30 65 1 88 89
M  V30 66 1 89 90
M  V30 67 1 91 92
M  V30 68 1 92 93
M  V30 69 1 94 95
M  V30 70 1 95 96
M  V30 71 1 97 98
M  V30 72 1 98 99
M  V30 73 1 2 49
M  V30 74 1 3 76
M  V30 75 1 4 73
M  V30 76 1 5 91
M  V30 77 1 7 46
M  V30 78 1 8 61
M  V30 79 1 9 70
M  V30 80 1 10 85
M  V30 81 1 12 88
M  V30 82 1 13 97
M  V30 83 1 14 67
M  V30 84 1 15 58
M  V30 85 1 17 69
M  V30 86 1 18 55
M  V30 87 1 19 52
M  V30 88 1 20 64
M  V30 89 1 22 48
M  V30 90 1 23 99
M  V30 91 1 24 54
M  V30 92 1 25 82
M  V30 93 1 27 57
M  V30 94 1 28 79
M  V30 95 1 29 75
M  V30 96 1 30 66
M  V30 97 1 32 51
M  V30 98 1 33 81
M  V30 99 1 34 60
M  V30 100 1 35 90
M  V30 101 1 37 84
M  V30 102 1 38 94
M  V30 103 1 39 72
M  V30 104 1 40 93
M  V30 105 1 42 63
M  V30 106 1 43 78
M  V30 107 1 44 96
M  V30 108 1 45 87
M  V30 END BOND
M  V30 END CTAB
M  END

$$$$
