
     RDKit          3D

  0  0  0  0  0  0  0  0  0  0999 V3000
M  V30 BEGIN CTAB
M  V30 COUNTS 99 108 0 0 0
M  V30 BEGIN ATOM
M  V30 1 Pd -4.9508 -2.0477 2.1298 0
M  V30 2 Pb -4.4419 -2.0158 1.2674 0
M  V30 3 Pb -4.3182 -2.7339 2.5288 0
M  V30 4 Pb -5.4844 -2.0837 2.9690 0
M  V30 5 Pb -5.4952 -1.2764 1.8080 0
M  V30 6 Pd -1.1829 -2.4294 6.3808 0
M  V30 7 Pb -0.3377 -2.3193 5.8614 0
M  V30 8 Pb -2.0404 -2.4963 6.8812 0
M  V30 9 Pb -1.5744 -3.0196 5.6538 0
M  V30 10 Pb -0.8570 -1.7239 7.0105 0
M  V30 11 Pd 4.7726 1.5586 -0.3472 0
M  V30 12 Pb 5.3286 0.8267 -0.7302 0
M  V30 13 Pb 4.1050 2.2233 -0.0130 0
M  V30 14 Pb 5.1626 2.2174 -0.9943 0
M  V30 15 Pb 4.4091 0.8824 0.2925 0
M  V30 16 Pd 3.8418 3.3779 -5.4921 0
M  V30 17 Pb 3.1721 3.9094 -4.9738 0
M  V30 18 Pb 4.3325 2.6319 -5.9376 0
M  V30 19 Pb 3.1320 3.2257 -6.1713 0
M  V30 20 Pb 4.5387 3.5135 -4.7860 0
M  V30 21 Pd 0.2026 -1.4345 0.1814 0
M  V30 22 Pb 0.3665 -2.3846 -0.0897 0
M  V30 23 Pb 0.0610 -0.4659 0.3906 0
M  V30 24 Pb 1.0946 -1.3800 0.6284 0
M  V30 25 Pb -0.7095 -1.5013 -0.2207 0
M  V30 26 Pd 0.0391 1.8961 4.5775 0
M  V30 27 Pb 0.6371 1.1022 4.4807 0
M  V30 28 Pb -0.6026 2.6617 4.6413 0
M  V30 29 Pb 0.0246 1.7276 5.5652 0
M  V30 30 Pb 0.0205 2.0106 3.5847 0
M  V30 31 Pd 2.0663 -3.3728 -4.3448 0
M  V30 32 Pb 1.7060 -3.8404 -3.5352 0
M  V30 33 Pb 1.1402 -3.3647 -4.7356 0
M  V30 34 Pb 2.9723 -3.3334 -3.9292 0
M  V30 35 Pb 2.4834 -2.8578 -5.0984 0
M  V30 36 Pd -2.8169 2.3675 1.0356 0
M  V30 37 Pb -2.6773 1.5614 0.4572 0
M  V30 38 Pb -1.8507 2.6352 0.9882 0
M  V30 39 Pb -3.7911 2.1361 1.0654 0
M  V30 40 Pb -2.9295 3.0804 1.7270 0
M  V30 41 Pd -1.8904 0.1385 -4.1682 0
M  V30 42 Pb -1.6766 0.4447 -5.0891 0
M  V30 43 Pb -1.6994 1.0753 -3.8631 0
M  V30 44 Pb -1.9204 -0.8067 -4.4990 0
M  V30 45 Pb -2.0679 -0.1514 -3.2300 0
M  V30 46 Ag 2.5593 3.0487 -6.6101 0
M  V30 47 Fe 0.4887 1.9205 -6.4460 0
M  V30 48 Ag -1.4230 0.7321 -5.7248 0
M  V30 49 Ag -5.7563 -2.1351 3.6568 0
M  V30 50 Fe -4.6686 -2.3518 5.7343 0
M  V30 51 Ag -2.7505 -2.5133 7.0901 0
M  V30 52 Ag 5.6102 0.2079 -1.0353 0
M  V30 53 Fe 4.8292 -1.6100 -2.3389 0
M  V30 54 Ag 3.6444 -3.2060 -3.6291 0
M  V30 55 Ag 2.5586 4.1286 -4.6004 0
M  V30 56 Fe 0.4730 3.1360 -4.0328 0
M  V30 57 Ag -1.4419 1.7647 -3.6993 0
M  V30 58 Ag 4.4982 1.9718 -6.2524 0
M  V30 59 Fe 3.8009 -0.2916 -6.0347 0
M  V30 60 Ag 2.9069 -2.4461 -5.5680 0
M  V30 61 Ag 3.5420 2.6595 0.2227 0
M  V30 62 Fe 1.1981 2.7821 0.6024 0
M  V30 63 Ag -1.1460 2.9029 0.9814 0
M  V30 64 Ba 5.4854 2.6957 -1.4771 0
M  V30 65 Ga 5.2514 3.1549 -2.8619 0
M  V30 66 Ba 5.0452 3.6343 -4.2442 0
M  V30 67 Ba -2.6069 0.8995 0.1067 0
M  V30 68 Ga -2.3917 0.3120 -1.2292 0
M  V30 69 Ba -2.1808 -0.3660 -2.5225 0
M  V30 70 Ba -0.6320 -1.1268 7.4059 0
M  V30 71 Ga -0.2910 0.2241 6.9147 0
M  V30 72 Ba 0.0224 1.5258 6.2899 0
M  V30 73 Ba -3.8409 -3.2381 2.8507 0
M  V30 74 Ga -2.8664 -3.3001 3.9825 0
M  V30 75 Ba -1.8764 -3.4441 5.0932 0
M  V30 76 Ba 0.4240 -3.3726 -4.9758 0
M  V30 77 Ga -0.7286 -2.4471 -4.8847 0
M  V30 78 Ba -1.8642 -1.5021 -4.7812 0
M  V30 79 Ba -0.0133 0.2708 0.5171 0
M  V30 80 Ga -0.0182 1.1694 1.6875 0
M  V30 81 Ba -0.0270 2.0897 2.8408 0
M  V30 82 Ba -5.8299 -0.6428 1.5943 0
M  V30 83 Ga -5.2211 0.6708 1.3149 0
M  V30 84 Ba -4.5170 1.9409 1.0578 0
M  V30 85 Ba 0.2856 -2.1662 5.4776 0
M  V30 86 Ga 0.7292 -0.8774 4.9221 0
M  V30 87 Ba 1.0384 0.4728 4.4247 0
M  V30 88 Ba -1.1105 3.2130 4.5966 0
M  V30 89 Ga -2.0634 3.4678 3.4992 0
M  V30 90 Ba -2.9324 3.5516 2.3099 0
M  V30 91 Ba 0.4756 -3.0865 -0.3354 0
M  V30 92 Ga 0.9638 -3.6455 -1.6132 0
M  V30 93 Ba 1.4569 -4.1667 -2.9050 0
M  V30 94 Ba 4.1641 0.3491 0.7586 0
M  V30 95 Ga 2.9516 -0.4821 0.8691 0
M  V30 96 Ba 1.7461 -1.3213 0.9938 0
M  V30 97 Ba -4.1052 -1.9684 0.5967 0
M  V30 98 Ga -2.7441 -1.7733 0.0608 0
M  V30 99 Ba -1.3964 -1.5803 -0.5087 0
M  V30 END ATOM
M  V30 BEGIN BOND
M  V30 1 1 1 2
M  V30 2 1 1 3
M  V30 3 1 1 4
M  V30 4 1 1 5
M  V30 5 1 6 7
M  V30 6 1 6 8
M  V30 7 1 6 9
M  V30 8 1 6 10
M  V30 9 1 11 12
M  V30 10 1 11 13
M  V30 11 1 11 14
M  V30 12 1 11 15
M  V30 13 1 16 17
M  V30 14 1 16 18
M  V30 15 1 16 19
M  V30 16 1 16 20
M  V30 17 1 21 22
M  V30 18 1 21 23
M  V30 19 1 21 24
M  V30 20 1 21 25
M  V30 21 1 26 27
M  V30 22 1 26 28
M  V30 23 1 26 29
M  V30 24 1 26 30
M  V30 25 1 31 32
M  V30 26 1 31 33
M  V30 27 1 31 34
M  V30 28 1 31 35
M  V30 29 1 36 37
M  V30 30 1 36 38
M  V30 31 1 36 39
M  V30 32 1 36 40
M  V30 33 1 41 42
M  V30 34 1 41 43
M  V30 35 1 41 44
M  V30 36 1 41 45
M  V30 37 1 46 47
M  V30 38 1 47 48
M  V30 39 1 49 50
M  V30 40 1 50 51
M  V30 41 1 52 53
M  V30 42 1 53 54
M  V30 43 1 55 56
M  V30 44 1 56 57
M  V30 45 1 58 59
M  V30 46 1 59 60
M  V30 47 1 61 62
M  V30 48 1 62 63
M  V30 49 1 64 65
M  V30 50 1 65 66
M  V30 51 1 67 68
M  V30 52 1 68 69
M  V30 53 1 70 71
M  V30 54 1 71 72
M  V30 55 1 73 74
M  V30 56 1 74 75
M  V30 57 1 76 77
M  V30 58 1 77 78
M  V30 59 1 79 80
M  V30 60 1 80 81
M  V30 61 1 82 83
M  V30 62 1 83 84
M  V30 63 1 85 86
M  V30 64 1 86 87
M  V30 65 1 88 89
M  V30 66 1 89 90
M  V30 67 1 91 92
M  V30 68 1 92 93
M  V30 69 1 94 95
M  V30 70 1 95 96
M  V30 71 1 97 98
M  V30 72 1 98 99
M  V30 73 1 2 97
M  V30 74 1 3 73
M  V30 75 1 4 49
M  V30 76 1 5 82
M  V30 77 1 7 85
M  V30 78 1 8 51
M  V30 79 1 9 75
M  V30 80 1 10 70
M  V30 81 1 12 52
M  V30 82 1 13 61
M  V30 83 1 14 64
M  V30 84 1 15 94
M  V30 85 1 17 55
M  V30 86 1 18 58
M  V30 87 1 19 46
M  V30 88 1 20 66
M  V30 89 1 22 91
M  V30 90 1 23 79
M  V30 91 1 24 96
M  V30 92 1 25 99
M  V30 93 1 27 87
M  V30 94 1 28 88
M  V30 95 1 29 72
M  V30 96 1 30 81
M  V30 97 1 32 93
M  V30 98 1 33 76
M  V30 99 1 34 54
M  V30 100 1 35 60
M  V30 101 1 37 67
M  V30 102 1 38 63
M  V30 103 1 39 84
M  V30 104 1 40 90
M  V30 105 1 42 48
M  V30 106 1 43 57
M  V30 107 1 44 78
M  V30 108 1 45 69
M  V30 END BOND
M  V30 END CTAB
M  END

$$$$
