
     RDKit          3D

  0  0  0  0  0  0  0  0  0  0999 V3000
M  V30 BEGIN CTAB
M  V30 COUNTS 99 108 0 0 0
M  V30 BEGIN ATOM
M  V30 1 Pd -2.3676 2.1318 0.3064 0
M  V30 2 Pb -3.2926 2.3197 -0.0266 0
M  V30 3 Pb -1.4418 1.9756 0.6493 0
M  V30 4 Pb -1.9732 2.8125 -0.3134 0
M  V30 5 Pb -2.7587 1.4181 0.8919 0
M  V30 6 Pd 4.9923 0.1464 7.4735 0
M  V30 7 Pb 4.9504 -0.3980 6.6339 0
M  V30 8 Pb 5.4825 0.8790 6.9831 0
M  V30 9 Pb 4.3223 -0.4646 7.8852 0
M  V30 10 Pb 5.0040 0.7170 8.2927 0
M  V30 11 Pd -2.0031 -3.8940 -3.3136 0
M  V30 12 Pb -2.7720 -3.5746 -2.7587 0
M  V30 13 Pb -1.6508 -4.3966 -2.5224 0
M  V30 14 Pb -1.2474 -4.2345 -3.8785 0
M  V30 15 Pb -2.3946 -3.4192 -4.1035 0
M  V30 16 Pd 2.2234 -1.7730 -5.9561 0
M  V30 17 Pb 1.8942 -2.7136 -5.8700 0
M  V30 18 Pb 2.4897 -0.7937 -6.0209 0
M  V30 19 Pb 2.5652 -1.8269 -5.0192 0
M  V30 20 Pb 1.9162 -1.7344 -6.9016 0
M  V30 21 Pd 1.2503 -3.7081 1.5526 0
M  V30 22 Pb 1.9394 -3.2940 2.1531 0
M  V30 23 Pb 0.6278 -4.2100 0.9479 0
M  V30 24 Pb 1.8056 -3.4118 0.7767 0
M  V30 25 Pb 0.6679 -3.9715 2.3232 0
M  V30 26 Pd 0.1284 3.5422 -6.7890 0
M  V30 27 Pb 1.0175 3.0842 -6.6226 0
M  V30 28 Pb -0.8163 3.8382 -6.8992 0
M  V30 29 Pb 0.1007 3.8997 -5.8545 0
M  V30 30 Pb 0.1115 3.1455 -7.7011 0
M  V30 31 Pd -5.2440 0.2791 -3.7084 0
M  V30 32 Pb -5.5180 0.9125 -2.9873 0
M  V30 33 Pb -5.2018 1.0432 -4.3501 0
M  V30 34 Pb -4.8935 -0.3399 -4.4118 0
M  V30 35 Pb -5.2394 -0.4774 -3.0556 0
M  V30 36 Pd -1.7651 -1.0010 5.0800 0
M  V30 37 Pb -1.6809 -1.9758 4.8724 0
M  V30 38 Pb -1.7942 -0.0163 5.2619 0
M  V30 39 Pb -1.1597 -1.1629 5.8601 0
M  V30 40 Pb -2.3729 -0.8642 4.2972 0
M  V30 41 Pd 2.8964 4.4490 5.3131 0
M  V30 42 Pb 3.8668 4.1713 5.3293 0
M  V30 43 Pb 2.7489 3.9146 4.4816 0
M  V30 44 Pb 1.9047 4.5350 5.3841 0
M  V30 45 Pb 3.0257 4.8962 6.1961 0
M  V30 46 Ag 4.9114 -0.7989 5.9993 0
M  V30 47 Fe 3.6485 -1.8944 4.3082 0
M  V30 48 Ag 2.5252 -3.0298 2.5466 0
M  V30 49 Ag 2.8327 -1.8993 -4.3236 0
M  V30 50 Fe 2.5191 -2.5296 -2.0566 0
M  V30 51 Ag 2.2295 -3.1540 0.2153 0
M  V30 52 Ag 4.9488 1.2748 8.7813 0
M  V30 53 Fe 4.1246 3.4473 8.3890 0
M  V30 54 Ag 3.1912 5.0246 6.9086 0
M  V30 55 Ag 1.6798 -1.5592 -7.5818 0
M  V30 56 Fe 0.8236 0.4564 -8.4493 0
M  V30 57 Ag 0.1334 2.7029 -8.2944 0
M  V30 58 Ag 3.7134 -0.8388 8.0995 0
M  V30 59 Fe 1.4808 -1.1686 7.3653 0
M  V30 60 Ag -0.6904 -1.3339 6.4206 0
M  V30 61 Ag -1.6356 3.2934 -0.7820 0
M  V30 62 Fe -0.7951 3.7585 -2.9558 0
M  V30 63 Ag 0.0209 4.1546 -5.1525 0
M  V30 64 Ag -1.7798 0.7289 5.3596 0
M  V30 65 Fe -0.4277 2.6806 5.4291 0
M  V30 66 Ag 1.1652 4.4422 5.4502 0
M  V30 67 Ag -0.7310 1.9222 0.8815 0
M  V30 68 Fe 0.9624 2.6694 2.3690 0
M  V30 69 Ag 2.5934 3.4723 3.8967 0
M  V30 70 Ag -1.5559 3.9339 -6.9041 0
M  V30 71 Fe -3.4654 2.9050 -5.9470 0
M  V30 72 Ag -5.1070 1.6214 -4.8157 0
M  V30 73 Ba -3.9966 2.4486 -0.2543 0
M  V30 74 Ga -4.8507 1.9370 -1.3419 0
M  V30 75 Ba -5.6725 1.4019 -2.4429 0
M  V30 76 Ba 0.1914 -4.1704 2.8691 0
M  V30 77 Ga -0.6896 -3.4432 3.8042 0
M  V30 78 Ba -1.5657 -2.7043 4.7346 0
M  V30 79 Ba 2.7060 -0.0596 -6.0680 0
M  V30 80 Ga 2.1390 1.3060 -6.2865 0
M  V30 81 Ba 1.6723 2.7107 -6.4956 0
M  V30 82 Ba -2.7201 -3.0743 -4.6863 0
M  V30 83 Ga -3.6552 -1.9396 -4.8199 0
M  V30 84 Ba -4.5897 -0.8009 -4.9201 0
M  V30 85 Ba 5.7774 1.4671 6.6028 0
M  V30 86 Ga 5.1895 2.6896 5.9867 0
M  V30 87 Ba 4.5772 3.9041 5.3787 0
M  V30 88 Ba -3.3589 -3.3406 -2.3536 0
M  V30 89 Ga -4.2892 -2.2001 -2.4482 0
M  V30 90 Ba -5.2019 -1.0481 -2.5716 0
M  V30 91 Ba -0.6904 -4.5073 -4.3057 0
M  V30 92 Ga 0.4660 -3.9569 -5.0423 0
M  V30 93 Ba 1.6227 -3.4071 -5.7789 0
M  V30 94 Ba -3.1032 0.8751 1.2828 0
M  V30 95 Ga -2.9300 0.0746 2.5118 0
M  V30 96 Ba -2.8424 -0.7717 3.7191 0
M  V30 97 Ba -1.4282 -4.8049 -1.9324 0
M  V30 98 Ga -0.6044 -4.6648 -0.7140 0
M  V30 99 Ba 0.1865 -4.6572 0.5337 0
M  V30 END ATOM
M  V30 BEGIN BOND
M  V30 1 1 1 2
M  V30 2 1 1 3
M  V30 3 1 1 4
M  V30 4 1 1 5
M  V30 5 1 6 7
M  V30 6 1 6 8
M  V30 7 1 6 9
M  V30 8 1 6 10
M  V30 9 1 11 12
M  V30 10 1 11 13
M  V30 11 1 11 14
M  V30 12 1 11 15
M  V30 13 1 16 17
M  V30 14 1 16 18
M  V30 15 1 16 19
M  V30 16 1 16 20
M  V30 17 1 21 22
M  V30 18 1 21 23
M  V30 19 1 21 24
M  V30 20 1 21 25
M  V30 21 1 26 27
M  V30 22 1 26 28
M  V30 23 1 26 29
M  V30 24 1 26 30
M  V30 25 1 31 32
M  V30 26 1 31 33
M  V30 27 1 31 34
M  V30 28 1 31 35
M  V30 29 1 36 37
M  V30 30 1 36 38
M  V30 31 1 36 39
M  V30 32 1 36 40
M  V30 33 1 41 42
M  V30 34 1 41 43
M  V30 35 1 41 44
M  V30 36 1 41 45
M  V30 37 1 46 47
M  V30 38 1 47 48
M  V30 39 1 49 50
M  V30 40 1 50 51
M  V30 41 1 52 53
M  V30 42 1 53 54
M  V30 43 1 55 56
M  V30 44 1 56 57
M  V30 45 1 58 59
M  V30 46 1 59 60
M  V30 47 1 61 62
M  V30 48 1 62 63
M  V30 49 1 64 65
M  V30 50 1 65 66
M  V30 51 1 67 68
M  V30 52 1 68 69
M  V30 53 1 70 71
M  V30 54 1 71 72
M  V30 55 1 73 74
M  V30 56 1 74 75
M  V30 57 1 76 77
M  V30 58 1 77 78
M  V30 59 1 79 80
M  V30 60 1 80 81
M  V30 61 1 82 83
M  V30 62 1 83 84
M  V30 63 1 85 86
M  V30 64 1 86 87
M  V30 65 1 88 89
M  V30 66 1 89 90
M  V30 67 1 91 92
M  V30 68 1 92 93
M  V30 69 1 94 95
M  V30 70 1 95 96
M  V30 71 1 97 98
M  V30 72 1 98 99
M  V30 73 1 2 73
M  V30 74 1 3 67
M  V30 75 1 4 61
M  V30 76 1 5 94
M  V30 77 1 7 46
M  V30 78 1 8 85
M  V30 79 1 9 58
M  V30 80 1 10 52
M  V30 81 1 12 88
M  V30 82 1 13 97
M  V30 83 1 14 91
M  V30 84 1 15 82
M  V30 85 1 17 93
M  V30 86 1 18 79
M  V30 87 1 19 49
M  V30 88 1 20 55
M  V30 89 1 22 48
M  V30 90 1 23 99
M  V30 91 1 24 51
M  V30 92 1 25 76
M  V30 93 1 27 81
M  V30 94 1 28 70
M  V30 95 1 29 63
M  V30 96 1 30 57
M  V30 97 1 32 75
M  V30 98 1 33 72
M  V30 99 1 34 84
M  V30 100 1 35 90
M  V30 101 1 37 78
M  V30 102 1 38 64
M  V30 103 1 39 60
M  V30 104 1 40 96
M  V30 105 1 42 87
M  V30 106 1 43 69
M  V30 107 1 44 66
M  V30 108 1 45 54
M  V30 END BOND
M  V30 END CTAB
M  END

$$$$
