
     RDKit          3D

  0  0  0  0  0  0  0  0  0  0999 V3000
M  V30 BEGIN CTAB
M  V30 COUNTS 99 108 0 0 0
M  V30 BEGIN ATOM
M  V30 1 Pd -7.1350 0.9654 -0.7488 0
M  V30 2 Pb -7.1542 -0.0165 -0.5624 0
M  V30 3 Pb -6.8559 1.1274 0.2151 0
M  V30 4 Pb -7.1286 1.9455 -0.9113 0
M  V30 5 Pb -7.3788 0.8123 -1.7074 0
M  V30 6 Pd 4.0645 4.6984 2.4740 0
M  V30 7 Pb 4.9669 4.3878 2.1807 0
M  V30 8 Pb 4.1598 4.2535 3.3671 0
M  V30 9 Pb 3.1749 5.0442 2.7642 0
M  V30 10 Pb 3.9369 5.0869 1.5607 0
M  V30 11 Pd 1.5146 -4.9677 1.4729 0
M  V30 12 Pb 1.1884 -5.3900 0.6263 0
M  V30 13 Pb 1.8280 -4.5898 2.3490 0
M  V30 14 Pb 0.6111 -5.1090 1.8788 0
M  V30 15 Pb 2.4119 -4.8623 1.0394 0
M  V30 16 Pd -3.3038 -5.6080 -0.6764 0
M  V30 17 Pb -2.4100 -5.9419 -0.9729 0
M  V30 18 Pb -4.1777 -5.2147 -0.3973 0
M  V30 19 Pb -2.9904 -5.6354 0.2730 0
M  V30 20 Pb -3.6164 -5.5326 -1.6221 0
M  V30 21 Pd 2.1996 2.7641 -4.6117 0
M  V30 22 Pb 1.8594 1.9828 -5.1290 0
M  V30 23 Pb 3.1224 2.3742 -4.6234 0
M  V30 24 Pb 1.2575 3.1095 -4.6138 0
M  V30 25 Pb 2.5069 3.5295 -4.0444 0
M  V30 26 Pd 7.6182 -0.9025 -0.7427 0
M  V30 27 Pb 7.4130 -0.6066 -1.6754 0
M  V30 28 Pb 7.7272 -1.1376 0.2189 0
M  V30 29 Pb 7.9055 0.0223 -0.5112 0
M  V30 30 Pb 7.2232 -1.8067 -0.8942 0
M  V30 31 Pd -3.5038 3.5788 3.2675 0
M  V30 32 Pb -3.0455 2.8797 3.8194 0
M  V30 33 Pb -4.2777 2.9514 3.0693 0
M  V30 34 Pb -3.9365 4.2740 2.7048 0
M  V30 35 Pb -2.7383 4.1960 3.4323 0
M  V30 36 Pd -4.4246 -0.1840 -5.4233 0
M  V30 37 Pb -4.6336 -1.1598 -5.4383 0
M  V30 38 Pb -5.3602 0.0204 -5.1281 0
M  V30 39 Pb -4.1306 0.7692 -5.3289 0
M  V30 40 Pb -3.4950 -0.3862 -5.7246 0
M  V30 41 Pd 3.0309 -0.3470 4.8958 0
M  V30 42 Pb 2.8011 -1.3185 4.7865 0
M  V30 43 Pb 3.3089 0.6043 5.0655 0
M  V30 44 Pb 2.0691 -0.1233 5.0691 0
M  V30 45 Pb 3.9831 -0.5878 4.7205 0
M  V30 46 Ag -7.0454 2.6809 -0.9112 0
M  V30 47 Fe -5.7829 4.1137 0.4681 0
M  V30 48 Ag -4.3072 4.6850 2.2133 0
M  V30 49 Ag 5.6330 4.1731 1.9152 0
M  V30 50 Fe 6.9255 2.5093 0.8265 0
M  V30 51 Ag 8.0284 0.7140 -0.2613 0
M  V30 52 Ag 1.5279 1.4095 -5.4739 0
M  V30 53 Fe -0.5769 0.3628 -5.7857 0
M  V30 54 Ag -2.7853 -0.4879 -5.9366 0
M  V30 55 Ag 3.7991 2.0470 -4.6421 0
M  V30 56 Fe 5.5329 0.8569 -3.5357 0
M  V30 57 Ag 7.2113 -0.3277 -2.3417 0
M  V30 58 Ag 0.5291 3.3001 -4.6481 0
M  V30 59 Fe -1.6871 2.4832 -4.9316 0
M  V30 60 Ag -3.8038 1.4399 -5.2317 0
M  V30 61 Ag 7.7189 -1.2572 0.9547 0
M  V30 62 Fe 6.2983 -1.0702 2.8432 0
M  V30 63 Ag 4.6840 -0.7894 4.5565 0
M  V30 64 Ag 3.0592 -4.8219 0.6579 0
M  V30 65 Fe 4.9750 -3.6697 -0.1468 0
M  V30 66 Ag 6.8743 -2.4688 -0.9186 0
M  V30 67 Ag -7.1607 -0.7463 -0.3908 0
M  V30 68 Fe -6.0337 -2.8331 -0.2923 0
M  V30 69 Ag -4.8246 -4.8750 -0.2361 0
M  V30 70 Ag -3.8789 -5.4108 -2.3128 0
M  V30 71 Fe -4.3487 -3.7444 -3.9358 0
M  V30 72 Ag -4.7201 -1.9008 -5.3829 0
M  V30 73 Ag 2.5138 5.3048 2.9964 0
M  V30 74 Fe 0.1783 5.0018 3.2774 0
M  V30 75 Ag -2.1529 4.6484 3.5346 0
M  V30 76 Ag 3.8472 5.3303 0.8562 0
M  V30 77 Fe 3.2917 4.7648 -1.3837 0
M  V30 78 Ag 2.7194 4.0869 -3.5879 0
M  V30 79 Ag -2.6792 2.3685 4.2310 0
M  V30 80 Fe -0.6663 1.1986 4.7126 0
M  V30 81 Ag 1.3431 0.0251 5.2003 0
M  V30 82 Ba -7.5541 0.7176 -2.4315 0
M  V30 83 Ga -6.8000 0.4333 -3.6693 0
M  V30 84 Ba -6.0722 0.1503 -4.9232 0
M  V30 85 Ba -6.6769 1.2086 0.9553 0
M  V30 86 Ga -5.7295 1.8866 1.8900 0
M  V30 87 Ba -4.8712 2.4812 2.9581 0
M  V30 88 Ba 2.0160 -4.3702 3.0456 0
M  V30 89 Ga 2.3440 -3.1645 3.8389 0
M  V30 90 Ba 2.6867 -2.0637 4.7670 0
M  V30 91 Ba -0.0694 -5.2334 2.1696 0
M  V30 92 Ga -1.4105 -5.4357 1.5887 0
M  V30 93 Ba -2.7397 -5.6344 0.9800 0
M  V30 94 Ba 4.1945 3.9228 4.0422 0
M  V30 95 Ga 3.8657 2.5939 4.6058 0
M  V30 96 Ba 3.5600 1.2940 5.2444 0
M  V30 97 Ba 0.9420 -5.7294 0.0036 0
M  V30 98 Ga -0.3846 -5.9513 -0.6016 0
M  V30 99 Ba -1.7241 -6.1571 -1.1836 0
M  V30 END ATOM
M  V30 BEGIN BOND
M  V30 1 1 1 2
M  V30 2 1 1 3
M  V30 3 1 1 4
M  V30 4 1 1 5
M  V30 5 1 6 7
M  V30 6 1 6 8
M  V30 7 1 6 9
M  V30 8 1 6 10
M  V30 9 1 11 12
M  V30 10 1 11 13
M  V30 11 1 11 14
M  V30 12 1 11 15
M  V30 13 1 16 17
M  V30 14 1 16 18
M  V30 15 1 16 19
M  V30 16 1 16 20
M  V30 17 1 21 22
M  V30 18 1 21 23
M  V30 19 1 21 24
M  V30 20 1 21 25
M  V30 21 1 26 27
M  V30 22 1 26 28
M  V30 23 1 26 29
M  V30 24 1 26 30
M  V30 25 1 31 32
M  V30 26 1 31 33
M  V30 27 1 31 34
M  V30 28 1 31 35
M  V30 29 1 36 37
M  V30 30 1 36 38
M  V30 31 1 36 39
M  V30 32 1 36 40
M  V30 33 1 41 42
M  V30 34 1 41 43
M  V30 35 1 41 44
M  V30 36 1 41 45
M  V30 37 1 46 47
M  V30 38 1 47 48
M  V30 39 1 49 50
M  V30 40 1 50 51
M  V30 41 1 52 53
M  V30 42 1 53 54
M  V30 43 1 55 56
M  V30 44 1 56 57
M  V30 45 1 58 59
M  V30 46 1 59 60
M  V30 47 1 61 62
M  V30 48 1 62 63
M  V30 49 1 64 65
M  V30 50 1 65 66
M  V30 51 1 67 68
M  V30 52 1 68 69
M  V30 53 1 70 71
M  V30 54 1 71 72
M  V30 55 1 73 74
M  V30 56 1 74 75
M  V30 57 1 76 77
M  V30 58 1 77 78
M  V30 59 1 79 80
M  V30 60 1 80 81
M  V30 61 1 82 83
M  V30 62 1 83 84
M  V30 63 1 85 86
M  V30 64 1 86 87
M  V30 65 1 88 89
M  V30 66 1 89 90
M  V30 67 1 91 92
M  V30 68 1 92 93
M  V30 69 1 94 95
M  V30 70 1 95 96
M  V30 71 1 97 98
M  V30 72 1 98 99
M  V30 73 1 2 67
M  V30 74 1 3 85
M  V30 75 1 4 46
M  V30 76 1 5 82
M  V30 77 1 7 49
M  V30 78 1 8 94
M  V30 79 1 9 73
M  V30 80 1 10 76
M  V30 81 1 12 97
M  V30 82 1 13 88
M  V30 83 1 14 91
M  V30 84 1 15 64
M  V30 85 1 17 99
M  V30 86 1 18 69
M  V30 87 1 19 93
M  V30 88 1 20 70
M  V30 89 1 22 52
M  V30 90 1 23 55
M  V30 91 1 24 58
M  V30 92 1 25 78
M  V30 93 1 27 57
M  V30 94 1 28 61
M  V30 95 1 29 51
M  V30 96 1 30 66
M  V30 97 1 32 79
M  V30 98 1 33 87
M  V30 99 1 34 48
M  V30 100 1 35 75
M  V30 101 1 37 72
M  V30 102 1 38 84
M  V30 103 1 39 60
M  V30 104 1 40 54
M  V30 105 1 42 90
M  V30 106 1 43 96
M  V30 107 1 44 81
M  V30 108 1 45 63
M  V30 END BOND
M  V30 END CTAB
M  END

$$$$
