
     RDKit          3D

  0  0  0  0  0  0  0  0  0  0999 V3000
M  V30 BEGIN CTAB
M  V30 COUNTS 99 108 0 0 0
M  V30 BEGIN ATOM
M  V30 1 Pd -1.9179 -2.2945 -0.9037 0
M  V30 2 Pb -1.0903 -2.8092 -0.6743 0
M  V30 3 Pb -1.3540 -1.5778 -1.3152 0
M  V30 4 Pb -2.5096 -2.9954 -0.5028 0
M  V30 5 Pb -2.7204 -1.7660 -1.1741 0
M  V30 6 Pd 3.6030 3.2456 -7.1567 0
M  V30 7 Pb 3.6026 3.7534 -6.2932 0
M  V30 8 Pb 3.8991 2.4076 -6.6788 0
M  V30 9 Pb 3.0227 3.9333 -7.5849 0
M  V30 10 Pb 3.6230 2.7438 -8.0176 0
M  V30 11 Pd 4.0196 0.5233 5.7970 0
M  V30 12 Pb 4.4931 -0.2336 5.3141 0
M  V30 13 Pb 4.0313 1.0856 4.9693 0
M  V30 14 Pb 3.4488 1.2100 6.2448 0
M  V30 15 Pb 4.0230 -0.0320 6.6229 0
M  V30 16 Pd -3.0823 1.2236 5.9236 0
M  V30 17 Pb -2.3672 1.7872 6.3350 0
M  V30 18 Pb -3.7248 0.5728 5.4724 0
M  V30 19 Pb -3.0544 1.8052 5.1113 0
M  V30 20 Pb -3.0977 0.6612 6.7419 0
M  V30 21 Pd 0.7151 4.7234 -0.0808 0
M  V30 22 Pb 1.4096 4.9257 -0.7725 0
M  V30 23 Pb 1.4289 4.3290 0.5005 0
M  V30 24 Pb -0.0115 4.5040 0.5717 0
M  V30 25 Pb 0.0155 5.1089 -0.6804 0
M  V30 26 Pd -3.7898 -4.3297 4.1016 0
M  V30 27 Pb -4.2440 -3.4187 4.1451 0
M  V30 28 Pb -3.2330 -5.1585 4.0826 0
M  V30 29 Pb -3.8975 -4.3864 3.1071 0
M  V30 30 Pb -3.7047 -4.3192 5.0909 0
M  V30 31 Pd 3.2979 -4.9941 4.1329 0
M  V30 32 Pb 3.0860 -4.8816 3.1629 0
M  V30 33 Pb 2.5807 -5.6885 4.1719 0
M  V30 34 Pb 3.4530 -5.0704 5.1129 0
M  V30 35 Pb 3.9549 -4.2198 4.1085 0
M  V30 36 Pd -3.2517 2.8323 -5.9531 0
M  V30 37 Pb -3.2219 3.6584 -5.3959 0
M  V30 38 Pb -3.2097 1.9475 -6.4210 0
M  V30 39 Pb -2.6720 3.3017 -6.6238 0
M  V30 40 Pb -3.7794 2.3708 -5.2421 0
M  V30 41 Pd 0.4757 -0.9044 -5.8567 0
M  V30 42 Pb 1.4604 -0.7070 -5.7075 0
M  V30 43 Pb 0.2856 -0.5717 -4.9309 0
M  V30 44 Pb -0.4958 -0.9521 -6.0983 0
M  V30 45 Pb 0.6880 -1.2109 -6.7812 0
M  V30 46 Ag 3.6209 4.1358 -5.6462 0
M  V30 47 Fe 2.7677 4.6013 -3.4776 0
M  V30 48 Ag 1.9154 5.0681 -1.3088 0
M  V30 49 Ag -0.4450 -3.1681 -0.5360 0
M  V30 50 Fe 1.2189 -3.9891 0.9475 0
M  V30 51 Ag 2.8691 -4.8034 2.4497 0
M  V30 52 Ag -0.5118 5.3683 -1.1442 0
M  V30 53 Fe -1.8748 4.9130 -3.0315 0
M  V30 54 Ag -3.1270 4.2325 -4.9277 0
M  V30 55 Ag -3.0184 2.2663 4.5214 0
M  V30 56 Fe -1.7711 3.2845 2.7749 0
M  V30 57 Ag -0.6097 4.3551 1.0008 0
M  V30 58 Ag 4.0299 -0.5619 7.1419 0
M  V30 59 Fe 3.8387 -2.9054 6.9777 0
M  V30 60 Ag 3.5576 -4.9479 5.8361 0
M  V30 61 Ag 3.5486 2.2612 -8.5760 0
M  V30 62 Fe 2.3296 0.2491 -8.6039 0
M  V30 63 Ag 0.9378 -1.2756 -7.4760 0
M  V30 64 Ag -3.1185 0.1323 7.2575 0
M  V30 65 Fe -3.3608 -2.1971 7.0358 0
M  V30 66 Ag -3.6382 -4.1896 5.8159 0
M  V30 67 Ag 2.9426 1.6772 6.5382 0
M  V30 68 Fe 0.6023 2.0501 6.6688 0
M  V30 69 Ag -1.7684 2.1446 6.6081 0
M  V30 70 Ag 2.4307 4.2996 -7.8575 0
M  V30 71 Fe 0.0764 4.1415 -7.5811 0
M  V30 72 Ag -2.1982 3.6974 -7.0553 0
M  V30 73 Ag -3.2765 -1.3346 -1.4276 0
M  V30 74 Fe -3.8220 0.3349 -3.0227 0
M  V30 75 Ag -4.1215 1.9896 -4.6965 0
M  V30 76 Ag -2.7319 -5.7144 4.0914 0
M  V30 77 Fe -0.3906 -6.0997 4.1360 0
M  V30 78 Ag 1.9819 -6.1382 4.1763 0
M  V30 79 Ag 4.0517 1.5211 4.3582 0
M  V30 80 Fe 2.9748 2.7676 2.6455 0
M  V30 81 Ag 2.0037 4.0428 0.8913 0
M  V30 82 Ba -4.2130 0.0887 5.1264 0
M  V30 83 Ga -4.3349 -1.3367 4.6792 0
M  V30 84 Ba -4.5837 -2.7299 4.1853 0
M  V30 85 Ba 4.0101 1.7437 -6.3224 0
M  V30 86 Ga 3.1035 0.6088 -5.9711 0
M  V30 87 Ba 2.1998 -0.5280 -5.6180 0
M  V30 88 Ba 4.8431 -0.8066 4.9475 0
M  V30 89 Ga 4.5959 -2.2239 4.5434 0
M  V30 90 Ba 4.4557 -3.6410 4.0906 0
M  V30 91 Ba -2.9863 -3.5071 -0.2291 0
M  V30 92 Ga -3.4602 -3.9693 1.0912 0
M  V30 93 Ba -3.9890 -4.4904 2.3680 0
M  V30 94 Ba -3.1883 1.2370 -6.6683 0
M  V30 95 Ga -2.2034 0.1418 -6.5289 0
M  V30 96 Ba -1.1968 -0.9312 -6.3724 0
M  V30 97 Ba -0.9622 -1.0152 -1.6207 0
M  V30 98 Ga -0.3927 -0.6883 -2.9435 0
M  V30 99 Ba 0.2010 -0.2943 -4.2369 0
M  V30 END ATOM
M  V30 BEGIN BOND
M  V30 1 1 1 2
M  V30 2 1 1 3
M  V30 3 1 1 4
M  V30 4 1 1 5
M  V30 5 1 6 7
M  V30 6 1 6 8
M  V30 7 1 6 9
M  V30 8 1 6 10
M  V30 9 1 11 12
M  V30 10 1 11 13
M  V30 11 1 11 14
M  V30 12 1 11 15
M  V30 13 1 16 17
M  V30 14 1 16 18
M  V30 15 1 16 19
M  V30 16 1 16 20
M  V30 17 1 21 22
M  V30 18 1 21 23
M  V30 19 1 21 24
M  V30 20 1 21 25
M  V30 21 1 26 27
M  V30 22 1 26 28
M  V30 23 1 26 29
M  V30 24 1 26 30
M  V30 25 1 31 32
M  V30 26 1 31 33
M  V30 27 1 31 34
M  V30 28 1 31 35
M  V30 29 1 36 37
M  V30 30 1 36 38
M  V30 31 1 36 39
M  V30 32 1 36 40
M  V30 33 1 41 42
M  V30 34 1 41 43
M  V30 35 1 41 44
M  V30 36 1 41 45
M  V30 37 1 46 47
M  V30 38 1 47 48
M  V30 39 1 49 50
M  V30 40 1 50 51
M  V30 41 1 52 53
M  V30 42 1 53 54
M  V30 43 1 55 56
M  V30 44 1 56 57
M  V30 45 1 58 59
M  V30 46 1 59 60
M  V30 47 1 61 62
M  V30 48 1 62 63
M  V30 49 1 64 65
M  V30 50 1 65 66
M  V30 51 1 67 68
M  V30 52 1 68 69
M  V30 53 1 70 71
M  V30 54 1 71 72
M  V30 55 1 73 74
M  V30 56 1 74 75
M  V30 57 1 76 77
M  V30 58 1 77 78
M  V30 59 1 79 80
M  V30 60 1 80 81
M  V30 61 1 82 83
M  V30 62 1 83 84
M  V30 63 1 85 86
M  V30 64 1 86 87
M  V30 65 1 88 89
M  V30 66 1 89 90
M  V30 67 1 91 92
M  V30 68 1 92 93
M  V30 69 1 94 95
M  V30 70 1 95 96
M  V30 71 1 97 98
M  V30 72 1 98 99
M  V30 73 1 2 49
M  V30 74 1 3 97
M  V30 75 1 4 91
M  V30 76 1 5 73
M  V30 77 1 7 46
M  V30 78 1 8 85
M  V30 79 1 9 70
M  V30 80 1 10 61
M  V30 81 1 12 88
M  V30 82 1 13 79
M  V30 83 1 14 67
M  V30 84 1 15 58
M  V30 85 1 17 69
M  V30 86 1 18 82
M  V30 87 1 19 55
M  V30 88 1 20 64
M  V30 89 1 22 48
M  V30 90 1 23 81
M  V30 91 1 24 57
M  V30 92 1 25 52
M  V30 93 1 27 84
M  V30 94 1 28 76
M  V30 95 1 29 93
M  V30 96 1 30 66
M  V30 97 1 32 51
M  V30 98 1 33 78
M  V30 99 1 34 60
M  V30 100 1 35 90
M  V30 101 1 37 54
M  V30 102 1 38 94
M  V30 103 1 39 72
M  V30 104 1 40 75
M  V30 105 1 42 87
M  V30 106 1 43 99
M  V30 107 1 44 96
M  V30 108 1 45 63
M  V30 END BOND
M  V30 END CTAB
M  END

$$$$
