
     RDKit          3D

  0  0  0  0  0  0  0  0  0  0999 V3000
M  V30 BEGIN CTAB
M  V30 COUNTS 99 108 0 0 0
M  V30 BEGIN ATOM
M  V30 1 Pd -0.9736 -2.6135 -4.9064 0
M  V30 2 Pb -1.4029 -3.5196 -4.9318 0
M  V30 3 Pb -1.8433 -2.2502 -5.2152 0
M  V30 4 Pb -0.0703 -2.9907 -4.6832 0
M  V30 5 Pb -0.7291 -1.6660 -4.7141 0
M  V30 6 Pd 3.7104 -3.3575 -1.3062 0
M  V30 7 Pb 3.2774 -4.1716 -0.9179 0
M  V30 8 Pb 4.2126 -3.2121 -0.4508 0
M  V30 9 Pb 4.1228 -2.5235 -1.6739 0
M  V30 10 Pb 3.2502 -3.5297 -2.1805 0
M  V30 11 Pd 1.5144 6.6933 0.0011 0
M  V30 12 Pb 2.2383 7.2137 0.4586 0
M  V30 13 Pb 2.1491 6.3504 -0.6923 0
M  V30 14 Pb 0.8082 6.0975 -0.3800 0
M  V30 15 Pb 0.8780 7.0273 0.6950 0
M  V30 16 Pd 2.3087 6.0389 4.6871 0
M  V30 17 Pb 1.7284 5.3068 5.0384 0
M  V30 18 Pb 3.0898 5.4502 4.8971 0
M  V30 19 Pb 1.5072 6.5648 4.4126 0
M  V30 20 Pb 2.8787 6.7048 4.2041 0
M  V30 21 Pd -6.9734 -3.2423 -2.0147 0
M  V30 22 Pb -7.1001 -2.3450 -1.5908 0
M  V30 23 Pb -6.9543 -3.7246 -1.1399 0
M  V30 24 Pb -6.9367 -2.7684 -2.8843 0
M  V30 25 Pb -6.5798 -4.0422 -2.4754 0
M  V30 26 Pd -2.9376 -0.2684 -0.7730 0
M  V30 27 Pb -3.9120 -0.0610 -0.9322 0
M  V30 28 Pb -1.9875 -0.5160 -0.5844 0
M  V30 29 Pb -3.1986 -0.5092 0.1636 0
M  V30 30 Pb -2.5993 0.0433 -1.6698 0
M  V30 31 Pd 2.1137 1.8451 -1.7484 0
M  V30 32 Pb 2.9434 1.3176 -1.9392 0
M  V30 33 Pb 2.5667 2.6790 -2.0646 0
M  V30 34 Pb 1.6818 1.0245 -1.3705 0
M  V30 35 Pb 1.2802 2.3803 -1.6025 0
M  V30 36 Pd -1.8986 -4.2318 2.6465 0
M  V30 37 Pb -1.3774 -5.0400 2.3866 0
M  V30 38 Pb -1.0701 -3.7269 2.4125 0
M  V30 39 Pb -2.4012 -3.3843 2.8020 0
M  V30 40 Pb -2.7676 -4.7124 2.7236 0
M  V30 41 Pd 3.0416 -0.9197 3.5830 0
M  V30 42 Pb 2.4036 -1.4554 3.0347 0
M  V30 43 Pb 3.7890 -1.4212 3.1478 0
M  V30 44 Pb 2.3048 -0.3994 4.0125 0
M  V30 45 Pb 3.6744 -0.2961 4.0424 0
M  V30 46 Ag -6.8678 -4.1051 -0.5006 0
M  V30 47 Fe -5.2997 -4.6581 1.1904 0
M  V30 48 Ag -3.4686 -4.9606 2.6663 0
M  V30 49 Ag 1.3480 4.6867 5.2121 0
M  V30 50 Fe 1.4286 2.3397 4.8731 0
M  V30 51 Ag 1.8179 0.0578 4.3513 0
M  V30 52 Ag -2.5150 -2.0111 -5.4172 0
M  V30 53 Fe -4.7647 -2.0590 -4.7071 0
M  V30 54 Ag -6.7685 -2.4290 -3.5184 0
M  V30 55 Ag 2.9161 -4.7485 -0.6027 0
M  V30 56 Fe 1.0579 -5.3462 0.7466 0
M  V30 57 Ag -0.8814 -5.5191 2.1020 0
M  V30 58 Ag 3.6069 4.9226 5.0292 0
M  V30 59 Fe 4.0019 2.5952 4.7638 0
M  V30 60 Ag 4.0786 0.2578 4.3472 0
M  V30 61 Ag -1.8716 -4.1069 -4.8641 0
M  V30 62 Fe -4.0132 -4.5442 -3.9179 0
M  V30 63 Ag -6.1402 -4.5312 -2.8462 0
M  V30 64 Ba -7.0665 -1.6267 -1.3670 0
M  V30 65 Ga -5.8798 -0.7610 -1.1480 0
M  V30 66 Ba -4.6614 0.0639 -0.9454 0
M  V30 67 Ba 0.4393 7.2731 1.2498 0
M  V30 68 Ga 0.6091 7.1456 2.7056 0
M  V30 69 Ba 0.9228 6.9315 4.1268 0
M  V30 70 Ba 2.5978 6.0666 -1.2231 0
M  V30 71 Ga 2.7720 4.7039 -1.7624 0
M  V30 72 Ba 2.9022 3.3209 -2.2609 0
M  V30 73 Ba -1.2746 -0.7161 -0.4661 0
M  V30 74 Ga 0.0486 -0.1373 -0.7693 0
M  V30 75 Ba 1.3897 0.4083 -1.0553 0
M  V30 76 Ba 0.3081 5.6008 -0.6354 0
M  V30 77 Ga 0.4574 4.2034 -1.0858 0
M  V30 78 Ba 0.6691 2.8105 -1.5252 0
M  V30 79 Ba -0.7330 -0.9401 -4.5245 0
M  V30 80 Ga -1.4622 -0.2935 -3.4064 0
M  V30 81 Ba -2.2182 0.2975 -2.2753 0
M  V30 82 Ba 0.6076 -3.3110 -4.6041 0
M  V30 83 Ga 1.7422 -3.4541 -3.6663 0
M  V30 84 Ba 2.9524 -3.6967 -2.8513 0
M  V30 85 Ba 4.6211 -3.1138 0.1735 0
M  V30 86 Ga 4.4657 -2.4570 1.4867 0
M  V30 87 Ba 4.3332 -1.8077 2.8063 0
M  V30 88 Ba -3.3845 -0.6461 0.8791 0
M  V30 89 Ga -3.0957 -1.6923 1.8776 0
M  V30 90 Ba -2.7949 -2.7512 2.8590 0
M  V30 91 Ba -0.4628 -3.4030 2.1186 0
M  V30 92 Ga 0.7333 -2.6050 2.4356 0
M  V30 93 Ba 1.9739 -1.8191 2.5431 0
M  V30 94 Ba 4.4316 -1.8881 -1.9270 0
M  V30 95 Ga 3.9926 -0.4814 -2.0150 0
M  V30 96 Ba 3.5637 0.9282 -2.1073 0
M  V30 97 Ba 2.7581 7.5652 0.8735 0
M  V30 98 Ga 3.0627 7.4239 2.3129 0
M  V30 99 Ba 3.2542 7.1782 3.7576 0
M  V30 END ATOM
M  V30 BEGIN BOND
M  V30 1 1 1 2
M  V30 2 1 1 3
M  V30 3 1 1 4
M  V30 4 1 1 5
M  V30 5 1 6 7
M  V30 6 1 6 8
M  V30 7 1 6 9
M  V30 8 1 6 10
M  V30 9 1 11 12
M  V30 10 1 11 13
M  V30 11 1 11 14
M  V30 12 1 11 15
M  V30 13 1 16 17
M  V30 14 1 16 18
M  V30 15 1 16 19
M  V30 16 1 16 20
M  V30 17 1 21 22
M  V30 18 1 21 23
M  V30 19 1 21 24
M  V30 20 1 21 25
M  V30 21 1 26 27
M  V30 22 1 26 28
M  V30 23 1 26 29
M  V30 24 1 26 30
M  V30 25 1 31 32
M  V30 26 1 31 33
M  V30 27 1 31 34
M  V30 28 1 31 35
M  V30 29 1 36 37
M  V30 30 1 36 38
M  V30 31 1 36 39
M  V30 32 1 36 40
M  V30 33 1 41 42
M  V30 34 1 41 43
M  V30 35 1 41 44
M  V30 36 1 41 45
M  V30 37 1 46 47
M  V30 38 1 47 48
M  V30 39 1 49 50
M  V30 40 1 50 51
M  V30 41 1 52 53
M  V30 42 1 53 54
M  V30 43 1 55 56
M  V30 44 1 56 57
M  V30 45 1 58 59
M  V30 46 1 59 60
M  V30 47 1 61 62
M  V30 48 1 62 63
M  V30 49 1 64 65
M  V30 50 1 65 66
M  V30 51 1 67 68
M  V30 52 1 68 69
M  V30 53 1 70 71
M  V30 54 1 71 72
M  V30 55 1 73 74
M  V30 56 1 74 75
M  V30 57 1 76 77
M  V30 58 1 77 78
M  V30 59 1 79 80
M  V30 60 1 80 81
M  V30 61 1 82 83
M  V30 62 1 83 84
M  V30 63 1 85 86
M  V30 64 1 86 87
M  V30 65 1 88 89
M  V30 66 1 89 90
M  V30 67 1 91 92
M  V30 68 1 92 93
M  V30 69 1 94 95
M  V30 70 1 95 96
M  V30 71 1 97 98
M  V30 72 1 98 99
M  V30 73 1 2 61
M  V30 74 1 3 52
M  V30 75 1 4 82
M  V30 76 1 5 79
M  V30 77 1 7 55
M  V30 78 1 8 85
M  V30 79 1 9 94
M  V30 80 1 10 84
M  V30 81 1 12 97
M  V30 82 1 13 70
M  V30 83 1 14 76
M  V30 84 1 15 67
M  V30 85 1 17 49
M  V30 86 1 18 58
M  V30 87 1 19 69
M  V30 88 1 20 99
M  V30 89 1 22 64
M  V30 90 1 23 46
M  V30 91 1 24 54
M  V30 92 1 25 63
M  V30 93 1 27 66
M  V30 94 1 28 73
M  V30 95 1 29 88
M  V30 96 1 30 81
M  V30 97 1 32 96
M  V30 98 1 33 72
M  V30 99 1 34 75
M  V30 100 1 35 78
M  V30 101 1 37 57
M  V30 102 1 38 91
M  V30 103 1 39 90
M  V30 104 1 40 48
M  V30 105 1 42 93
M  V30 106 1 43 87
M  V30 107 1 44 51
M  V30 108 1 45 60
M  V30 END BOND
M  V30 END CTAB
M  END

$$$$
