
     RDKit          3D

  0  0  0  0  0  0  0  0  0  0999 V3000
M  V30 BEGIN CTAB
M  V30 COUNTS 99 108 0 0 0
M  V30 BEGIN ATOM
M  V30 1 Pd 1.8555 -4.5400 -1.2748 0
M  V30 2 Pb 2.7757 -4.3414 -0.9453 0
M  V30 3 Pb 0.9664 -4.8226 -1.6403 0
M  V30 4 Pb 2.1456 -4.2783 -2.1955 0
M  V30 5 Pb 1.5755 -4.7296 -0.3331 0
M  V30 6 Pd -8.5042 -0.4682 0.6667 0
M  V30 7 Pb -7.9574 0.3568 0.5274 0
M  V30 8 Pb -8.4795 -0.6825 -0.3115 0
M  V30 9 Pb -8.3808 -0.4092 1.6549 0
M  V30 10 Pb -8.9803 -1.3333 0.7939 0
M  V30 11 Pd 5.5166 5.3866 2.4260 0
M  V30 12 Pb 5.8226 4.8358 3.1938 0
M  V30 13 Pb 4.6782 5.6325 2.9103 0
M  V30 14 Pb 5.1910 5.9562 1.6764 0
M  V30 15 Pb 6.2711 5.0071 1.8566 0
M  V30 16 Pd 0.8247 4.6562 -2.9199 0
M  V30 17 Pb 1.2355 5.4950 -2.5783 0
M  V30 18 Pb 0.4952 3.7563 -3.2246 0
M  V30 19 Pb -0.0485 4.9209 -2.5071 0
M  V30 20 Pb 1.7217 4.4451 -3.2899 0
M  V30 21 Pd -1.9870 3.9278 1.8438 0
M  V30 22 Pb -2.8540 3.5697 1.4927 0
M  V30 23 Pb -1.1747 4.3681 2.2359 0
M  V30 24 Pb -1.9932 4.5346 1.0471 0
M  V30 25 Pb -1.9699 3.2753 2.6040 0
M  V30 26 Pd 3.5853 0.1687 -3.8824 0
M  V30 27 Pb 2.6032 0.3906 -3.9306 0
M  V30 28 Pb 4.5732 0.0125 -3.8148 0
M  V30 29 Pb 3.3986 -0.8132 -3.9845 0
M  V30 30 Pb 3.7960 1.1390 -3.8882 0
M  V30 31 Pd 7.5310 0.4106 0.0605 0
M  V30 32 Pb 7.3204 -0.5625 0.0636 0
M  V30 33 Pb 7.4426 0.3922 -0.9393 0
M  V30 34 Pb 7.6717 1.4196 0.1016 0
M  V30 35 Pb 7.6384 0.3738 1.0471 0
M  V30 36 Pd -3.0730 -3.2457 4.4840 0
M  V30 37 Pb -2.7014 -2.3406 4.6942 0
M  V30 38 Pb -3.4382 -4.1379 4.2137 0
M  V30 39 Pb -3.9801 -2.8637 4.6665 0
M  V30 40 Pb -2.1733 -3.6109 4.2468 0
M  V30 41 Pd -5.8498 -6.2956 -1.4333 0
M  V30 42 Pb -6.2137 -5.6509 -2.1077 0
M  V30 43 Pb -4.9462 -6.2782 -1.8618 0
M  V30 44 Pb -5.4917 -6.7632 -0.6278 0
M  V30 45 Pb -6.7358 -6.2459 -0.9815 0
M  V30 46 Ag -7.5196 0.9543 0.4127 0
M  V30 47 Fe -5.5025 2.1320 0.8490 0
M  V30 48 Ag -3.5261 3.4032 1.1996 0
M  V30 49 Ag 3.4805 -4.2277 -0.7236 0
M  V30 50 Fe 5.3148 -2.7823 -0.3133 0
M  V30 51 Ag 7.1037 -1.2759 0.0765 0
M  V30 52 Ag -1.9148 2.7793 3.1665 0
M  V30 53 Fe -2.1847 0.5751 4.0136 0
M  V30 54 Ag -2.4692 -1.6393 4.8288 0
M  V30 55 Ag -9.2370 -2.0311 0.8318 0
M  V30 56 Fe -8.5278 -4.1961 0.1902 0
M  V30 57 Ag -7.3784 -6.0923 -0.6379 0
M  V30 58 Ag -8.3882 -0.9829 -0.9951 0
M  V30 59 Fe -7.5020 -2.9681 -1.9594 0
M  V30 60 Ag -6.5226 -5.0726 -2.4762 0
M  V30 61 Ag 6.0890 4.3266 3.6583 0
M  V30 62 Fe 7.0014 2.2066 3.2032 0
M  V30 63 Ag 7.6669 0.4538 1.7818 0
M  V30 64 Ag 4.8731 6.3731 1.1455 0
M  V30 65 Fe 3.2781 6.3805 -0.6055 0
M  V30 66 Ag 1.6437 6.0442 -2.2862 0
M  V30 67 Ag -8.1952 -0.4892 2.3752 0
M  V30 68 Fe -6.4814 -1.4608 3.7008 0
M  V30 69 Ag -4.6370 -2.5129 4.7642 0
M  V30 70 Ag 1.4006 -4.8187 0.3915 0
M  V30 71 Fe -0.0493 -4.3866 2.2228 0
M  V30 72 Ag -1.5326 -3.9280 4.0206 0
M  V30 73 Ag -3.6451 -4.8094 3.9472 0
M  V30 74 Fe -4.4437 -6.0224 2.0676 0
M  V30 75 Ag -5.2607 -6.9757 0.0516 0
M  V30 76 Ag 0.3372 -5.0770 -1.9644 0
M  V30 77 Fe -1.9701 -5.6421 -2.0284 0
M  V30 78 Ag -4.2672 -6.2326 -2.1780 0
M  V30 79 Ag 3.9951 5.7622 3.1904 0
M  V30 80 Fe 1.6898 5.2537 2.9087 0
M  V30 81 Ag -0.6030 4.7152 2.5839 0
M  V30 82 Ba -0.6675 5.1923 -2.1775 0
M  V30 83 Ga -1.3464 5.0508 -0.8726 0
M  V30 84 Ba -2.0577 4.9413 0.4180 0
M  V30 85 Ba 0.3082 3.0583 -3.4480 0
M  V30 86 Ga 1.0866 1.8198 -3.7062 0
M  V30 87 Ba 1.8710 0.5847 -3.9627 0
M  V30 88 Ba 6.8192 4.7159 1.4028 0
M  V30 89 Ga 7.2601 3.4126 0.8081 0
M  V30 90 Ba 7.7999 2.1765 0.1545 0
M  V30 91 Ba 2.4143 4.3136 -3.5257 0
M  V30 92 Ga 3.2010 3.0961 -3.7391 0
M  V30 93 Ba 3.9626 1.8612 -3.9439 0
M  V30 94 Ba 2.3714 -4.0601 -2.8770 0
M  V30 95 Ga 2.8182 -2.7837 -3.4746 0
M  V30 96 Ba 3.2737 -1.5420 -4.1353 0
M  V30 97 Ba 5.3242 -0.0227 -3.7726 0
M  V30 98 Ga 6.3436 0.1382 -2.7118 0
M  V30 99 Ba 7.3990 0.2936 -1.6859 0
M  V30 END ATOM
M  V30 BEGIN BOND
M  V30 1 1 1 2
M  V30 2 1 1 3
M  V30 3 1 1 4
M  V30 4 1 1 5
M  V30 5 1 6 7
M  V30 6 1 6 8
M  V30 7 1 6 9
M  V30 8 1 6 10
M  V30 9 1 11 12
M  V30 10 1 11 13
M  V30 11 1 11 14
M  V30 12 1 11 15
M  V30 13 1 16 17
M  V30 14 1 16 18
M  V30 15 1 16 19
M  V30 16 1 16 20
M  V30 17 1 21 22
M  V30 18 1 21 23
M  V30 19 1 21 24
M  V30 20 1 21 25
M  V30 21 1 26 27
M  V30 22 1 26 28
M  V30 23 1 26 29
M  V30 24 1 26 30
M  V30 25 1 31 32
M  V30 26 1 31 33
M  V30 27 1 31 34
M  V30 28 1 31 35
M  V30 29 1 36 37
M  V30 30 1 36 38
M  V30 31 1 36 39
M  V30 32 1 36 40
M  V30 33 1 41 42
M  V30 34 1 41 43
M  V30 35 1 41 44
M  V30 36 1 41 45
M  V30 37 1 46 47
M  V30 38 1 47 48
M  V30 39 1 49 50
M  V30 40 1 50 51
M  V30 41 1 52 53
M  V30 42 1 53 54
M  V30 43 1 55 56
M  V30 44 1 56 57
M  V30 45 1 58 59
M  V30 46 1 59 60
M  V30 47 1 61 62
M  V30 48 1 62 63
M  V30 49 1 64 65
M  V30 50 1 65 66
M  V30 51 1 67 68
M  V30 52 1 68 69
M  V30 53 1 70 71
M  V30 54 1 71 72
M  V30 55 1 73 74
M  V30 56 1 74 75
M  V30 57 1 76 77
M  V30 58 1 77 78
M  V30 59 1 79 80
M  V30 60 1 80 81
M  V30 61 1 82 83
M  V30 62 1 83 84
M  V30 63 1 85 86
M  V30 64 1 86 87
M  V30 65 1 88 89
M  V30 66 1 89 90
M  V30 67 1 91 92
M  V30 68 1 92 93
M  V30 69 1 94 95
M  V30 70 1 95 96
M  V30 71 1 97 98
M  V30 72 1 98 99
M  V30 73 1 2 49
M  V30 74 1 3 76
M  V30 75 1 4 94
M  V30 76 1 5 70
M  V30 77 1 7 46
M  V30 78 1 8 58
M  V30 79 1 9 67
M  V30 80 1 10 55
M  V30 81 1 12 61
M  V30 82 1 13 79
M  V30 83 1 14 64
M  V30 84 1 15 88
M  V30 85 1 17 66
M  V30 86 1 18 85
M  V30 87 1 19 82
M  V30 88 1 20 91
M  V30 89 1 22 48
M  V30 90 1 23 81
M  V30 91 1 24 84
M  V30 92 1 25 52
M  V30 93 1 27 87
M  V30 94 1 28 97
M  V30 95 1 29 96
M  V30 96 1 30 93
M  V30 97 1 32 51
M  V30 98 1 33 99
M  V30 99 1 34 90
M  V30 100 1 35 63
M  V30 101 1 37 54
M  V30 102 1 38 73
M  V30 103 1 39 69
M  V30 104 1 40 72
M  V30 105 1 42 60
M  V30 106 1 43 78
M  V30 107 1 44 75
M  V30 108 1 45 57
M  V30 END BOND
M  V30 END CTAB
M  END

$$$$
