
     RDKit          3D

  0  0  0  0  0  0  0  0  0  0999 V3000
M  V30 BEGIN CTAB
M  V30 COUNTS 99 108 0 0 0
M  V30 BEGIN ATOM
M  V30 1 Pd -1.1345 3.3209 1.0292 0
M  V30 2 Pb -1.9151 3.0865 1.6038 0
M  V30 3 Pb -1.4042 2.5704 0.4236 0
M  V30 4 Pb -0.8549 4.0420 1.6649 0
M  V30 5 Pb -0.3317 3.4921 0.4591 0
M  V30 6 Pd -4.6035 -1.9809 -6.4997 0
M  V30 7 Pb -3.8982 -2.5519 -6.0779 0
M  V30 8 Pb -5.1417 -1.9665 -5.6424 0
M  V30 9 Pb -3.9725 -1.8027 -7.2519 0
M  V30 10 Pb -5.3040 -1.4125 -6.9250 0
M  V30 11 Pd 1.0026 -4.7019 2.8798 0
M  V30 12 Pb 0.9338 -4.6173 3.8738 0
M  V30 13 Pb 1.0788 -4.8306 1.8868 0
M  V30 14 Pb 1.9936 -4.6163 2.9594 0
M  V30 15 Pb 0.0019 -4.7427 2.8405 0
M  V30 16 Pd 5.9648 0.6988 3.0886 0
M  V30 17 Pb 5.9881 -0.2842 3.2543 0
M  V30 18 Pb 5.8722 0.8854 4.0644 0
M  V30 19 Pb 6.0032 0.4797 2.1154 0
M  V30 20 Pb 5.8673 1.6804 2.9139 0
M  V30 21 Pd 2.2286 -2.7978 -2.7585 0
M  V30 22 Pb 1.4341 -3.1625 -3.2462 0
M  V30 23 Pb 1.9898 -3.4255 -2.0087 0
M  V30 24 Pb 3.0178 -2.4048 -2.2848 0
M  V30 25 Pb 2.5134 -2.2624 -3.5586 0
M  V30 26 Pd 2.4719 3.7470 5.1789 0
M  V30 27 Pb 3.1624 3.1938 5.6430 0
M  V30 28 Pb 1.7806 3.3925 5.8096 0
M  V30 29 Pb 1.7888 4.3181 4.7181 0
M  V30 30 Pb 3.1743 4.0306 4.5235 0
M  V30 31 Pd -2.2386 -1.9683 5.7341 0
M  V30 32 Pb -2.8692 -1.3106 5.3296 0
M  V30 33 Pb -1.9198 -1.2289 6.3268 0
M  V30 34 Pb -2.4918 -2.6735 5.0684 0
M  V30 35 Pb -1.5497 -2.5895 6.0992 0
M  V30 36 Pd 1.3050 1.8639 -5.7584 0
M  V30 37 Pb 1.9679 1.1168 -5.7826 0
M  V30 38 Pb 0.6067 2.5714 -5.6525 0
M  V30 39 Pb 0.8263 1.4465 -6.5332 0
M  V30 40 Pb 1.7286 2.2554 -4.9442 0
M  V30 41 Pd -5.0724 1.8727 -2.7938 0
M  V30 42 Pb -5.4931 0.9528 -2.8231 0
M  V30 43 Pb -4.2976 1.5059 -2.2754 0
M  V30 44 Pb -4.5507 2.7028 -2.9738 0
M  V30 45 Pb -5.8110 2.2144 -3.3701 0
M  V30 46 Ag -3.3537 -2.9813 -5.7903 0
M  V30 47 Fe -1.2621 -3.1997 -4.6843 0
M  V30 48 Ag 0.8270 -3.4516 -3.5807 0
M  V30 49 Ag -2.4726 2.8205 2.0237 0
M  V30 50 Fe -3.0262 1.0829 3.5386 0
M  V30 51 Ag -3.2584 -0.7546 5.0185 0
M  V30 52 Ag 6.0036 0.2389 1.4066 0
M  V30 53 Fe 4.8083 -0.9042 -0.2982 0
M  V30 54 Ag 3.6183 -2.0513 -2.0038 0
M  V30 55 Ag -5.8204 -0.9063 -7.0936 0
M  V30 56 Fe -6.5025 0.9674 -5.8407 0
M  V30 57 Ag -6.2941 2.3176 -3.9232 0
M  V30 58 Ag 2.7250 -4.4977 3.0600 0
M  V30 59 Fe 4.4213 -2.8472 3.2133 0
M  V30 60 Ag 5.9374 -1.0266 3.3210 0
M  V30 61 Ag -3.4278 -1.5636 -7.7060 0
M  V30 62 Fe -1.4535 -0.2517 -7.5598 0
M  V30 63 Ag 0.4456 1.0903 -7.0749 0
M  V30 64 Ag 0.2681 3.5661 0.0159 0
M  V30 65 Fe 1.2126 3.1170 -2.1147 0
M  V30 66 Ag 1.9507 2.5695 -4.3028 0
M  V30 67 Ag 0.0840 3.0740 -5.4616 0
M  V30 68 Fe -2.0039 3.3412 -4.3652 0
M  V30 69 Ag -4.0890 3.2273 -3.2380 0
M  V30 70 Ag 1.2821 3.0668 6.2668 0
M  V30 71 Fe -0.2159 1.2489 6.5731 0
M  V30 72 Ag -1.6636 -0.6302 6.6990 0
M  V30 73 Ba 2.7963 -1.9054 -4.1597 0
M  V30 74 Ga 2.5940 -0.6770 -4.9552 0
M  V30 75 Ba 2.4387 0.5340 -5.7874 0
M  V30 76 Ba 5.7544 1.0441 4.7854 0
M  V30 77 Ga 4.7425 1.9037 5.4218 0
M  V30 78 Ba 3.6968 2.7833 5.9703 0
M  V30 79 Ba -0.7504 -4.7462 2.8634 0
M  V30 80 Ga -1.7180 -3.9902 3.6878 0
M  V30 81 Ba -2.6255 -3.1983 4.5460 0
M  V30 82 Ba -5.5192 -1.8901 -4.9831 0
M  V30 83 Ga -5.6463 -0.8187 -3.9497 0
M  V30 84 Ba -5.7765 0.2497 -2.9136 0
M  V30 85 Ba 0.8671 -4.5661 4.6190 0
M  V30 86 Ga -0.0498 -3.8267 5.5028 0
M  V30 87 Ba -1.0051 -3.0535 6.3137 0
M  V30 88 Ba 5.7500 2.4170 2.8184 0
M  V30 89 Ga 4.7510 3.3361 3.4029 0
M  V30 90 Ba 3.7202 4.1886 4.0312 0
M  V30 91 Ba -0.6438 4.5745 2.1507 0
M  V30 92 Ga 0.3250 4.6561 3.2631 0
M  V30 93 Ba 1.2861 4.7645 4.3800 0
M  V30 94 Ba -1.6045 1.9795 0.0047 0
M  V30 95 Ga -2.6679 1.6299 -0.9591 0
M  V30 96 Ba -3.6999 1.2097 -1.9287 0
M  V30 97 Ba 1.1360 -4.9929 1.1528 0
M  V30 98 Ga 1.4790 -4.3887 -0.1554 0
M  V30 99 Ba 1.7811 -3.9887 -1.5489 0
M  V30 END ATOM
M  V30 BEGIN BOND
M  V30 1 1 1 2
M  V30 2 1 1 3
M  V30 3 1 1 4
M  V30 4 1 1 5
M  V30 5 1 6 7
M  V30 6 1 6 8
M  V30 7 1 6 9
M  V30 8 1 6 10
M  V30 9 1 11 12
M  V30 10 1 11 13
M  V30 11 1 11 14
M  V30 12 1 11 15
M  V30 13 1 16 17
M  V30 14 1 16 18
M  V30 15 1 16 19
M  V30 16 1 16 20
M  V30 17 1 21 22
M  V30 18 1 21 23
M  V30 19 1 21 24
M  V30 20 1 21 25
M  V30 21 1 26 27
M  V30 22 1 26 28
M  V30 23 1 26 29
M  V30 24 1 26 30
M  V30 25 1 31 32
M  V30 26 1 31 33
M  V30 27 1 31 34
M  V30 28 1 31 35
M  V30 29 1 36 37
M  V30 30 1 36 38
M  V30 31 1 36 39
M  V30 32 1 36 40
M  V30 33 1 41 42
M  V30 34 1 41 43
M  V30 35 1 41 44
M  V30 36 1 41 45
M  V30 37 1 46 47
M  V30 38 1 47 48
M  V30 39 1 49 50
M  V30 40 1 50 51
M  V30 41 1 52 53
M  V30 42 1 53 54
M  V30 43 1 55 56
M  V30 44 1 56 57
M  V30 45 1 58 59
M  V30 46 1 59 60
M  V30 47 1 61 62
M  V30 48 1 62 63
M  V30 49 1 64 65
M  V30 50 1 65 66
M  V30 51 1 67 68
M  V30 52 1 68 69
M  V30 53 1 70 71
M  V30 54 1 71 72
M  V30 55 1 73 74
M  V30 56 1 74 75
M  V30 57 1 76 77
M  V30 58 1 77 78
M  V30 59 1 79 80
M  V30 60 1 80 81
M  V30 61 1 82 83
M  V30 62 1 83 84
M  V30 63 1 85 86
M  V30 64 1 86 87
M  V30 65 1 88 89
M  V30 66 1 89 90
M  V30 67 1 91 92
M  V30 68 1 92 93
M  V30 69 1 94 95
M  V30 70 1 95 96
M  V30 71 1 97 98
M  V30 72 1 98 99
M  V30 73 1 2 49
M  V30 74 1 3 94
M  V30 75 1 4 91
M  V30 76 1 5 64
M  V30 77 1 7 46
M  V30 78 1 8 82
M  V30 79 1 9 61
M  V30 80 1 10 55
M  V30 81 1 12 85
M  V30 82 1 13 97
M  V30 83 1 14 58
M  V30 84 1 15 79
M  V30 85 1 17 60
M  V30 86 1 18 76
M  V30 87 1 19 52
M  V30 88 1 20 88
M  V30 89 1 22 48
M  V30 90 1 23 99
M  V30 91 1 24 54
M  V30 92 1 25 73
M  V30 93 1 27 78
M  V30 94 1 28 70
M  V30 95 1 29 93
M  V30 96 1 30 90
M  V30 97 1 32 51
M  V30 98 1 33 72
M  V30 99 1 34 81
M  V30 100 1 35 87
M  V30 101 1 37 75
M  V30 102 1 38 67
M  V30 103 1 39 63
M  V30 104 1 40 66
M  V30 105 1 42 84
M  V30 106 1 43 96
M  V30 107 1 44 69
M  V30 108 1 45 57
M  V30 END BOND
M  V30 END CTAB
M  END

$$$$
