
     RDKit          3D

  0  0  0  0  0  0  0  0  0  0999 V3000
M  V30 BEGIN CTAB
M  V30 COUNTS 99 108 0 0 0
M  V30 BEGIN ATOM
M  V30 1 Pd 4.8272 0.1872 -0.3777 0
M  V30 2 Pb 4.8870 -0.1580 0.5627 0
M  V30 3 Pb 4.9059 0.5997 -1.2880 0
M  V30 4 Pb 4.5763 1.0956 -0.0495 0
M  V30 5 Pb 5.0227 -0.7419 -0.7064 0
M  V30 6 Pd -1.9094 0.4042 -7.7206 0
M  V30 7 Pb -2.6156 0.2930 -7.0219 0
M  V30 8 Pb -2.0528 1.3905 -7.7440 0
M  V30 9 Pb -1.6926 -0.5672 -7.6445 0
M  V30 10 Pb -1.1457 0.5291 -8.3720 0
M  V30 11 Pd -3.2542 -3.5708 6.6295 0
M  V30 12 Pb -2.7343 -2.9816 7.2424 0
M  V30 13 Pb -3.7316 -4.0595 5.9037 0
M  V30 14 Pb -4.0724 -3.0364 6.8264 0
M  V30 15 Pb -2.3863 -3.9801 6.3498 0
M  V30 16 Pd -4.7475 2.9826 4.2301 0
M  V30 17 Pb -5.1922 2.3471 4.8599 0
M  V30 18 Pb -4.1720 3.3346 4.9703 0
M  V30 19 Pb -5.2782 2.5784 3.4833 0
M  V30 20 Pb -4.2694 3.5904 3.5964 0
M  V30 21 Pd -4.3489 -2.5436 -0.7777 0
M  V30 22 Pb -4.3012 -2.0336 -1.6389 0
M  V30 23 Pb -4.4807 -3.0855 0.0529 0
M  V30 24 Pb -5.0279 -1.8795 -0.4630 0
M  V30 25 Pb -3.5847 -3.1475 -1.0143 0
M  V30 26 Pd 0.3153 4.3623 4.1795 0
M  V30 27 Pb -0.3315 4.3242 4.9431 0
M  V30 28 Pb 1.0938 4.1037 4.7552 0
M  V30 29 Pb 0.9622 4.3979 3.4212 0
M  V30 30 Pb -0.4444 4.6138 3.5778 0
M  V30 31 Pd 2.9132 -0.2612 5.2649 0
M  V30 32 Pb 3.6135 -0.3882 4.5582 0
M  V30 33 Pb 3.1378 0.7041 5.4071 0
M  V30 34 Pb 2.6344 -1.2171 5.1646 0
M  V30 35 Pb 2.2394 -0.1961 5.9987 0
M  V30 36 Pd 2.7020 -3.8426 -3.7177 0
M  V30 37 Pb 2.0119 -4.1708 -3.0721 0
M  V30 38 Pb 3.3413 -3.5040 -4.4037 0
M  V30 39 Pb 2.0068 -3.9193 -4.4312 0
M  V30 40 Pb 3.4106 -3.7260 -3.0162 0
M  V30 41 Pd 3.4253 2.1981 -7.7616 0
M  V30 42 Pb 2.9249 3.0604 -7.7410 0
M  V30 43 Pb 3.9991 2.4543 -6.9868 0
M  V30 44 Pb 3.8819 1.3126 -7.7414 0
M  V30 45 Pb 2.7609 1.8607 -8.4425 0
M  V30 46 Ag -3.1190 0.2043 -6.4733 0
M  V30 47 Fe -3.6916 -0.7422 -4.3701 0
M  V30 48 Ag -4.3667 -1.6360 -2.2743 0
M  V30 49 Ag -2.9801 -3.5891 -1.0929 0
M  V30 50 Fe -0.7746 -4.0082 -1.8753 0
M  V30 51 Ag 1.4293 -4.4174 -2.6674 0
M  V30 52 Ag -5.6554 2.2234 2.9387 0
M  V30 53 Fe -5.6457 0.4631 1.3424 0
M  V30 54 Ag -5.4744 -1.3359 -0.2008 0
M  V30 55 Ag -1.6994 -4.1676 6.1156 0
M  V30 56 Fe 0.3979 -3.1854 5.5882 0
M  V30 57 Ag 2.3544 -1.9134 5.1454 0
M  V30 58 Ag -1.9606 2.1277 -7.7501 0
M  V30 59 Fe 0.0525 3.3585 -7.7442 0
M  V30 60 Ag 2.4011 3.5876 -7.7367 0
M  V30 61 Ag -2.2896 -2.4937 7.5907 0
M  V30 62 Fe -0.2865 -1.2794 7.2219 0
M  V30 63 Ag 1.7282 -0.2278 6.5440 0
M  V30 64 Ag -4.6221 -2.5381 6.9113 0
M  V30 65 Fe -5.2049 -0.3524 6.1976 0
M  V30 66 Ag -5.4933 1.8276 5.3076 0
M  V30 67 Ag -1.4812 -1.2768 -7.5378 0
M  V30 68 Fe -0.0338 -2.6894 -6.2962 0
M  V30 69 Ag 1.4803 -3.9399 -4.9635 0
M  V30 70 Ag 4.3499 1.7765 0.1619 0
M  V30 71 Fe 2.9319 3.1201 1.5080 0
M  V30 72 Ag 1.4849 4.3980 2.8869 0
M  V30 73 Ag 3.7688 -3.2184 -4.9454 0
M  V30 74 Fe 4.0908 -1.3434 -6.3595 0
M  V30 75 Ag 4.1998 0.6441 -7.6469 0
M  V30 76 Ag 5.0286 1.0067 -1.9100 0
M  V30 77 Fe 4.7010 1.7689 -4.1370 0
M  V30 78 Ag 4.4004 2.5477 -6.3621 0
M  V30 79 Ag -4.0521 -4.3502 5.2947 0
M  V30 80 Fe -4.3619 -3.9844 2.9700 0
M  V30 81 Ag -4.6050 -3.5152 0.6557 0
M  V30 82 Ba 5.0391 -0.4125 1.2555 0
M  V30 83 Ga 4.5223 -0.4408 2.6408 0
M  V30 84 Ba 4.1581 -0.5634 4.0689 0
M  V30 85 Ba -3.7092 3.5803 5.5091 0
M  V30 86 Ga -2.2784 3.9475 5.5226 0
M  V30 87 Ba -0.8454 4.3053 5.4913 0
M  V30 88 Ba -0.5750 0.6319 -8.8657 0
M  V30 89 Ga 0.8322 1.1189 -8.8646 0
M  V30 90 Ba 2.2418 1.5944 -8.9293 0
M  V30 91 Ba -3.8759 4.0384 3.1416 0
M  V30 92 Ga -2.4533 4.4305 3.1189 0
M  V30 93 Ba -1.0234 4.7953 3.1348 0
M  V30 94 Ba 5.1564 -1.4615 -0.8915 0
M  V30 95 Ga 4.5440 -2.5225 -1.7236 0
M  V30 96 Ba 3.9823 -3.6271 -2.5347 0
M  V30 97 Ba 1.7230 3.9189 5.1244 0
M  V30 98 Ga 2.4877 2.6738 5.3478 0
M  V30 99 Ba 3.2518 1.4285 5.5717 0
M  V30 END ATOM
M  V30 BEGIN BOND
M  V30 1 1 1 2
M  V30 2 1 1 3
M  V30 3 1 1 4
M  V30 4 1 1 5
M  V30 5 1 6 7
M  V30 6 1 6 8
M  V30 7 1 6 9
M  V30 8 1 6 10
M  V30 9 1 11 12
M  V30 10 1 11 13
M  V30 11 1 11 14
M  V30 12 1 11 15
M  V30 13 1 16 17
M  V30 14 1 16 18
M  V30 15 1 16 19
M  V30 16 1 16 20
M  V30 17 1 21 22
M  V30 18 1 21 23
M  V30 19 1 21 24
M  V30 20 1 21 25
M  V30 21 1 26 27
M  V30 22 1 26 28
M  V30 23 1 26 29
M  V30 24 1 26 30
M  V30 25 1 31 32
M  V30 26 1 31 33
M  V30 27 1 31 34
M  V30 28 1 31 35
M  V30 29 1 36 37
M  V30 30 1 36 38
M  V30 31 1 36 39
M  V30 32 1 36 40
M  V30 33 1 41 42
M  V30 34 1 41 43
M  V30 35 1 41 44
M  V30 36 1 41 45
M  V30 37 1 46 47
M  V30 38 1 47 48
M  V30 39 1 49 50
M  V30 40 1 50 51
M  V30 41 1 52 53
M  V30 42 1 53 54
M  V30 43 1 55 56
M  V30 44 1 56 57
M  V30 45 1 58 59
M  V30 46 1 59 60
M  V30 47 1 61 62
M  V30 48 1 62 63
M  V30 49 1 64 65
M  V30 50 1 65 66
M  V30 51 1 67 68
M  V30 52 1 68 69
M  V30 53 1 70 71
M  V30 54 1 71 72
M  V30 55 1 73 74
M  V30 56 1 74 75
M  V30 57 1 76 77
M  V30 58 1 77 78
M  V30 59 1 79 80
M  V30 60 1 80 81
M  V30 61 1 82 83
M  V30 62 1 83 84
M  V30 63 1 85 86
M  V30 64 1 86 87
M  V30 65 1 88 89
M  V30 66 1 89 90
M  V30 67 1 91 92
M  V30 68 1 92 93
M  V30 69 1 94 95
M  V30 70 1 95 96
M  V30 71 1 97 98
M  V30 72 1 98 99
M  V30 73 1 2 82
M  V30 74 1 3 76
M  V30 75 1 4 70
M  V30 76 1 5 94
M  V30 77 1 7 46
M  V30 78 1 8 58
M  V30 79 1 9 67
M  V30 80 1 10 88
M  V30 81 1 12 61
M  V30 82 1 13 79
M  V30 83 1 14 64
M  V30 84 1 15 55
M  V30 85 1 17 66
M  V30 86 1 18 85
M  V30 87 1 19 52
M  V30 88 1 20 91
M  V30 89 1 22 48
M  V30 90 1 23 81
M  V30 91 1 24 54
M  V30 92 1 25 49
M  V30 93 1 27 87
M  V30 94 1 28 97
M  V30 95 1 29 72
M  V30 96 1 30 93
M  V30 97 1 32 84
M  V30 98 1 33 99
M  V30 99 1 34 57
M  V30 100 1 35 63
M  V30 101 1 37 51
M  V30 102 1 38 73
M  V30 103 1 39 69
M  V30 104 1 40 96
M  V30 105 1 42 60
M  V30 106 1 43 78
M  V30 107 1 44 75
M  V30 108 1 45 90
M  V30 END BOND
M  V30 END CTAB
M  END

$$$$
