
     RDKit          3D

  0  0  0  0  0  0  0  0  0  0999 V3000
M  V30 BEGIN CTAB
M  V30 COUNTS 99 108 0 0 0
M  V30 BEGIN ATOM
M  V30 1 Pd -3.7935 -6.1264 2.9440 0
M  V30 2 Pb -3.1811 -6.8120 2.5523 0
M  V30 3 Pb -3.3260 -6.2151 3.8223 0
M  V30 4 Pb -4.3534 -5.3695 3.2849 0
M  V30 5 Pb -4.2300 -5.9855 2.0579 0
M  V30 6 Pd -6.4136 -0.2094 -0.2774 0
M  V30 7 Pb -6.4534 0.7542 -0.0052 0
M  V30 8 Pb -6.4511 -0.5284 0.6709 0
M  V30 9 Pb -6.3434 -1.1692 -0.5430 0
M  V30 10 Pb -6.3282 0.0720 -1.2301 0
M  V30 11 Pd 4.8926 -1.7119 -5.1587 0
M  V30 12 Pb 5.6499 -1.0724 -5.2201 0
M  V30 13 Pb 4.3379 -1.0971 -5.7521 0
M  V30 14 Pb 5.4089 -2.2801 -4.5206 0
M  V30 15 Pb 4.1510 -2.3803 -5.0709 0
M  V30 16 Pd -4.2546 4.1153 -2.4526 0
M  V30 17 Pb -3.6732 4.1716 -3.2654 0
M  V30 18 Pb -3.9152 4.9901 -2.0984 0
M  V30 19 Pb -4.8329 4.0076 -1.6414 0
M  V30 20 Pb -4.6449 3.2771 -2.8290 0
M  V30 21 Pd 2.2003 -3.3993 6.3569 0
M  V30 22 Pb 2.7562 -4.1352 5.9692 0
M  V30 23 Pb 1.6186 -2.6489 6.6679 0
M  V30 24 Pb 1.4763 -4.0584 6.5539 0
M  V30 25 Pb 2.8746 -2.7047 6.1038 0
M  V30 26 Pd 2.6809 3.7556 -6.0044 0
M  V30 27 Pb 1.6827 3.7361 -6.0658 0
M  V30 28 Pb 2.7644 2.8060 -6.3634 0
M  V30 29 Pb 2.5971 4.6523 -5.5751 0
M  V30 30 Pb 3.6709 3.8123 -5.9501 0
M  V30 31 Pd -0.0050 6.6615 0.3833 0
M  V30 32 Pb 0.8913 6.4641 0.7800 0
M  V30 33 Pb -0.4294 6.4487 1.2645 0
M  V30 34 Pb 0.4313 6.8806 -0.4886 0
M  V30 35 Pb -0.8994 6.8557 -0.0226 0
M  V30 36 Pd 1.5577 3.5844 4.4350 0
M  V30 37 Pb 0.7596 4.1761 4.3137 0
M  V30 38 Pb 2.0701 4.1630 3.8013 0
M  V30 39 Pb 2.3312 2.9571 4.5385 0
M  V30 40 Pb 1.0599 2.9897 5.0649 0
M  V30 41 Pd 3.1121 -6.7552 -0.1845 0
M  V30 42 Pb 3.4566 -6.8704 0.7472 0
M  V30 43 Pb 2.2635 -7.2194 0.0729 0
M  V30 44 Pb 2.7554 -6.5304 -1.0932 0
M  V30 45 Pb 3.9550 -6.2960 -0.4593 0
M  V30 46 Ag 1.2070 -2.0443 6.8298 0
M  V30 47 Fe 0.8752 0.2386 6.2704 0
M  V30 48 Ag 0.7507 2.4908 5.5306 0
M  V30 49 Ag 3.3029 -2.1227 5.9001 0
M  V30 50 Fe 3.2128 0.1628 5.2558 0
M  V30 51 Ag 2.8572 2.4304 4.6405 0
M  V30 52 Ag 3.1313 -4.6900 5.6304 0
M  V30 53 Fe 3.4785 -5.8529 3.5885 0
M  V30 54 Ag 3.6885 -6.8869 1.4604 0
M  V30 55 Ag 2.4977 5.2906 -5.1987 0
M  V30 56 Fe 1.6507 6.2347 -3.1930 0
M  V30 57 Ag 0.7637 7.0344 -1.1423 0
M  V30 58 Ag 5.7261 -2.7170 -4.0027 0
M  V30 59 Fe 5.2669 -4.3373 -2.3313 0
M  V30 60 Ag 4.5525 -5.9354 -0.7296 0
M  V30 61 Ag 3.6493 -2.9269 -4.9464 0
M  V30 62 Fe 2.9981 -4.6362 -3.4271 0
M  V30 63 Ag 2.5349 -6.2714 -1.7639 0
M  V30 64 Ag -4.5605 -5.7920 1.4159 0
M  V30 65 Fe -5.4506 -3.9288 0.2485 0
M  V30 66 Ag -6.2621 -1.9008 -0.6765 0
M  V30 67 Ag -3.2563 4.1476 -3.8898 0
M  V30 68 Fe -1.1573 3.9663 -4.9883 0
M  V30 69 Ag 0.9347 3.7869 -6.1003 0
M  V30 70 Ag -4.7562 -4.7580 3.4530 0
M  V30 71 Fe -5.6553 -2.7634 2.5245 0
M  V30 72 Ag -6.4399 -0.8528 1.3485 0
M  V30 73 Ag 6.1156 -0.5007 -5.2756 0
M  V30 74 Fe 5.7256 1.7993 -5.5900 0
M  V30 75 Ag 4.4032 3.7218 -5.8999 0
M  V30 76 Ag -2.9352 -6.2523 4.4600 0
M  V30 77 Fe -1.0359 -5.4518 5.6366 0
M  V30 78 Ag 0.9055 -4.5336 6.6468 0
M  V30 79 Ag -2.6840 -7.2774 2.2398 0
M  V30 80 Fe -0.5333 -7.4732 1.2512 0
M  V30 81 Ag 1.6308 -7.5683 0.2769 0
M  V30 82 Ba 3.9193 -0.6502 -6.2162 0
M  V30 83 Ga 3.4002 0.7464 -6.3633 0
M  V30 84 Ba 2.8134 2.0941 -6.6477 0
M  V30 85 Ba -6.4680 1.4840 0.1764 0
M  V30 86 Ga -5.8737 2.6993 -0.4194 0
M  V30 87 Ba -5.2669 3.8973 -1.0371 0
M  V30 88 Ba -0.7256 6.2899 1.9360 0
M  V30 89 Ga -0.2942 5.4548 3.0744 0
M  V30 90 Ba 0.1596 4.6128 4.1989 0
M  V30 91 Ba -3.7170 5.6676 -1.8367 0
M  V30 92 Ga -2.6170 6.3057 -1.0845 0
M  V30 93 Ba -1.5606 7.0204 -0.3385 0
M  V30 94 Ba -6.2304 0.2857 -1.9392 0
M  V30 95 Ga -5.6001 1.4683 -2.5474 0
M  V30 96 Ba -4.9618 2.6645 -3.1193 0
M  V30 97 Ba 1.5607 6.3097 1.0808 0
M  V30 98 Ga 2.0137 5.4604 2.1977 0
M  V30 99 Ba 2.4385 4.6032 3.3196 0
M  V30 END ATOM
M  V30 BEGIN BOND
M  V30 1 1 1 2
M  V30 2 1 1 3
M  V30 3 1 1 4
M  V30 4 1 1 5
M  V30 5 1 6 7
M  V30 6 1 6 8
M  V30 7 1 6 9
M  V30 8 1 6 10
M  V30 9 1 11 12
M  V30 10 1 11 13
M  V30 11 1 11 14
M  V30 12 1 11 15
M  V30 13 1 16 17
M  V30 14 1 16 18
M  V30 15 1 16 19
M  V30 16 1 16 20
M  V30 17 1 21 22
M  V30 18 1 21 23
M  V30 19 1 21 24
M  V30 20 1 21 25
M  V30 21 1 26 27
M  V30 22 1 26 28
M  V30 23 1 26 29
M  V30 24 1 26 30
M  V30 25 1 31 32
M  V30 26 1 31 33
M  V30 27 1 31 34
M  V30 28 1 31 35
M  V30 29 1 36 37
M  V30 30 1 36 38
M  V30 31 1 36 39
M  V30 32 1 36 40
M  V30 33 1 41 42
M  V30 34 1 41 43
M  V30 35 1 41 44
M  V30 36 1 41 45
M  V30 37 1 46 47
M  V30 38 1 47 48
M  V30 39 1 49 50
M  V30 40 1 50 51
M  V30 41 1 52 53
M  V30 42 1 53 54
M  V30 43 1 55 56
M  V30 44 1 56 57
M  V30 45 1 58 59
M  V30 46 1 59 60
M  V30 47 1 61 62
M  V30 48 1 62 63
M  V30 49 1 64 65
M  V30 50 1 65 66
M  V30 51 1 67 68
M  V30 52 1 68 69
M  V30 53 1 70 71
M  V30 54 1 71 72
M  V30 55 1 73 74
M  V30 56 1 74 75
M  V30 57 1 76 77
M  V30 58 1 77 78
M  V30 59 1 79 80
M  V30 60 1 80 81
M  V30 61 1 82 83
M  V30 62 1 83 84
M  V30 63 1 85 86
M  V30 64 1 86 87
M  V30 65 1 88 89
M  V30 66 1 89 90
M  V30 67 1 91 92
M  V30 68 1 92 93
M  V30 69 1 94 95
M  V30 70 1 95 96
M  V30 71 1 97 98
M  V30 72 1 98 99
M  V30 73 1 2 79
M  V30 74 1 3 76
M  V30 75 1 4 70
M  V30 76 1 5 64
M  V30 77 1 7 85
M  V30 78 1 8 72
M  V30 79 1 9 66
M  V30 80 1 10 94
M  V30 81 1 12 73
M  V30 82 1 13 82
M  V30 83 1 14 58
M  V30 84 1 15 61
M  V30 85 1 17 67
M  V30 86 1 18 91
M  V30 87 1 19 87
M  V30 88 1 20 96
M  V30 89 1 22 52
M  V30 90 1 23 46
M  V30 91 1 24 78
M  V30 92 1 25 49
M  V30 93 1 27 69
M  V30 94 1 28 84
M  V30 95 1 29 55
M  V30 96 1 30 75
M  V30 97 1 32 97
M  V30 98 1 33 88
M  V30 99 1 34 57
M  V30 100 1 35 93
M  V30 101 1 37 90
M  V30 102 1 38 99
M  V30 103 1 39 51
M  V30 104 1 40 48
M  V30 105 1 42 54
M  V30 106 1 43 81
M  V30 107 1 44 63
M  V30 108 1 45 60
M  V30 END BOND
M  V30 END CTAB
M  END

$$$$
