
     RDKit          3D

  0  0  0  0  0  0  0  0  0  0999 V3000
M  V30 BEGIN CTAB
M  V30 COUNTS 99 108 0 0 0
M  V30 BEGIN ATOM
M  V30 1 Pd 1.9016 -4.7570 -3.2686 0
M  V30 2 Pb 1.0621 -4.6238 -3.7974 0
M  V30 3 Pb 1.5140 -5.5265 -2.7549 0
M  V30 4 Pb 2.3195 -4.0152 -3.7894 0
M  V30 5 Pb 2.7213 -4.8042 -2.7045 0
M  V30 6 Pd -1.9131 -2.7613 3.7576 0
M  V30 7 Pb -1.7466 -2.0245 3.1082 0
M  V30 8 Pb -2.0044 -3.5458 4.3598 0
M  V30 9 Pb -1.2826 -2.3536 4.4172 0
M  V30 10 Pb -2.4594 -3.2464 3.0719 0
M  V30 11 Pd -5.0604 4.9219 0.0727 0
M  V30 12 Pb -5.3457 4.0071 -0.2144 0
M  V30 13 Pb -4.9462 4.6298 1.0190 0
M  V30 14 Pb -4.6638 5.7953 0.3506 0
M  V30 15 Pb -5.0259 5.1596 -0.8971 0
M  V30 16 Pd 1.7343 6.5374 1.0569 0
M  V30 17 Pb 0.9296 7.0651 1.3232 0
M  V30 18 Pb 2.4699 5.9509 0.7175 0
M  V30 19 Pb 1.9476 6.3105 2.0100 0
M  V30 20 Pb 1.4936 6.7016 0.1008 0
M  V30 21 Pd 0.7896 2.1621 3.4419 0
M  V30 22 Pb 0.3261 1.4617 2.9031 0
M  V30 23 Pb -0.1138 2.5308 3.6594 0
M  V30 24 Pb 1.2356 2.9444 3.8777 0
M  V30 25 Pb 1.6834 1.7561 3.2398 0
M  V30 26 Pd 2.1711 2.7146 -5.0889 0
M  V30 27 Pb 2.7650 2.8652 -4.2960 0
M  V30 28 Pb 1.5465 2.5528 -5.8553 0
M  V30 29 Pb 2.5715 1.8143 -5.2428 0
M  V30 30 Pb 1.7732 3.6093 -4.8936 0
M  V30 31 Pd -2.8342 0.8357 -5.3840 0
M  V30 32 Pb -2.5837 -0.1343 -5.4427 0
M  V30 33 Pb -2.1628 1.0761 -6.0870 0
M  V30 34 Pb -3.1073 1.7952 -5.3010 0
M  V30 35 Pb -3.4865 0.6486 -4.6490 0
M  V30 36 Pd 3.2647 -2.8907 3.5678 0
M  V30 37 Pb 3.4561 -1.9266 3.3641 0
M  V30 38 Pb 3.1118 -3.8715 3.7296 0
M  V30 39 Pb 2.6499 -2.5990 4.3028 0
M  V30 40 Pb 3.8391 -3.1762 2.8054 0
M  V30 41 Pd -0.1576 -6.6918 1.9002 0
M  V30 42 Pb -0.5148 -6.6177 2.8296 0
M  V30 43 Pb 0.1575 -6.8633 0.9614 0
M  V30 44 Pb 0.7500 -6.8007 2.3062 0
M  V30 45 Pb -1.0620 -6.4350 1.5601 0
M  V30 46 Ag 0.4467 -4.4449 -4.1894 0
M  V30 47 Fe -1.0062 -2.6837 -4.8543 0
M  V30 48 Ag -2.4094 -0.8666 -5.4739 0
M  V30 49 Ag 2.9495 5.4928 0.3665 0
M  V30 50 Fe 3.1813 4.2095 -1.6202 0
M  V30 51 Ag 3.1630 3.0175 -3.6763 0
M  V30 52 Ag -4.9252 5.2279 -1.6364 0
M  V30 53 Fe -4.1616 3.9792 -3.5070 0
M  V30 54 Ag -3.3538 2.4934 -5.1751 0
M  V30 55 Ag -5.4785 3.3245 -0.4960 0
M  V30 56 Fe -4.8207 1.8510 -2.2393 0
M  V30 57 Ag -3.9681 0.6074 -4.0749 0
M  V30 58 Ag 1.3158 6.7562 -0.6252 0
M  V30 59 Fe 1.3557 5.6226 -2.7102 0
M  V30 60 Ag 1.5231 4.2732 -4.6556 0
M  V30 61 Ag -4.2756 6.3826 0.6048 0
M  V30 62 Fe -2.0528 7.0623 1.0824 0
M  V30 63 Ag 0.2700 7.4030 1.4283 0
M  V30 64 Ag 2.6399 -3.4659 -4.1833 0
M  V30 65 Fe 2.7672 -1.1733 -4.7790 0
M  V30 66 Ag 2.8537 1.1296 -5.3416 0
M  V30 67 Ag 3.3011 -4.7711 -2.2366 0
M  V30 68 Fe 3.9067 -4.1386 -0.0346 0
M  V30 69 Ag 4.2046 -3.4335 2.2080 0
M  V30 70 Ag -4.7314 4.4256 1.7048 0
M  V30 71 Fe -2.8359 3.5931 2.8645 0
M  V30 72 Ag -0.8150 2.7617 3.7903 0
M  V30 73 Ba -1.5867 -1.5088 2.5929 0
M  V30 74 Ga -0.8171 -0.2552 2.5537 0
M  V30 75 Ba -0.0594 1.0023 2.4556 0
M  V30 76 Ba 2.3575 1.4544 3.0965 0
M  V30 77 Ga 2.9667 0.1080 3.1553 0
M  V30 78 Ba 3.6302 -1.2131 3.1944 0
M  V30 79 Ba 2.0931 6.1040 2.7191 0
M  V30 80 Ga 1.8458 4.8531 3.4658 0
M  V30 81 Ba 1.5617 3.5684 4.1383 0
M  V30 82 Ba -2.8065 -3.6688 2.5553 0
M  V30 83 Ga -2.3432 -4.9168 1.9155 0
M  V30 84 Ba -1.7302 -6.1477 1.3768 0
M  V30 85 Ba -1.9976 -4.1864 4.7346 0
M  V30 86 Ga -1.4247 -5.4310 4.2120 0
M  V30 87 Ba -0.8073 -6.5656 3.5165 0
M  V30 88 Ba -0.7667 -2.1138 4.9056 0
M  V30 89 Ga 0.7065 -2.2089 4.8925 0
M  V30 90 Ba 2.1758 -2.3337 4.8226 0
M  V30 91 Ba 3.0777 -4.6256 3.7798 0
M  V30 92 Ga 2.2367 -5.7185 3.2392 0
M  V30 93 Ba 1.3900 -6.8077 2.7002 0
M  V30 94 Ba 1.2704 -6.1369 -2.3873 0
M  V30 95 Ga 0.8055 -6.5327 -1.0390 0
M  V30 96 Ba 0.3280 -7.0688 0.2552 0
M  V30 97 Ba 1.0787 2.3979 -6.4232 0
M  V30 98 Ga -0.2879 1.8448 -6.5191 0
M  V30 99 Ba -1.6553 1.2909 -6.5979 0
M  V30 END ATOM
M  V30 BEGIN BOND
M  V30 1 1 1 2
M  V30 2 1 1 3
M  V30 3 1 1 4
M  V30 4 1 1 5
M  V30 5 1 6 7
M  V30 6 1 6 8
M  V30 7 1 6 9
M  V30 8 1 6 10
M  V30 9 1 11 12
M  V30 10 1 11 13
M  V30 11 1 11 14
M  V30 12 1 11 15
M  V30 13 1 16 17
M  V30 14 1 16 18
M  V30 15 1 16 19
M  V30 16 1 16 20
M  V30 17 1 21 22
M  V30 18 1 21 23
M  V30 19 1 21 24
M  V30 20 1 21 25
M  V30 21 1 26 27
M  V30 22 1 26 28
M  V30 23 1 26 29
M  V30 24 1 26 30
M  V30 25 1 31 32
M  V30 26 1 31 33
M  V30 27 1 31 34
M  V30 28 1 31 35
M  V30 29 1 36 37
M  V30 30 1 36 38
M  V30 31 1 36 39
M  V30 32 1 36 40
M  V30 33 1 41 42
M  V30 34 1 41 43
M  V30 35 1 41 44
M  V30 36 1 41 45
M  V30 37 1 46 47
M  V30 38 1 47 48
M  V30 39 1 49 50
M  V30 40 1 50 51
M  V30 41 1 52 53
M  V30 42 1 53 54
M  V30 43 1 55 56
M  V30 44 1 56 57
M  V30 45 1 58 59
M  V30 46 1 59 60
M  V30 47 1 61 62
M  V30 48 1 62 63
M  V30 49 1 64 65
M  V30 50 1 65 66
M  V30 51 1 67 68
M  V30 52 1 68 69
M  V30 53 1 70 71
M  V30 54 1 71 72
M  V30 55 1 73 74
M  V30 56 1 74 75
M  V30 57 1 76 77
M  V30 58 1 77 78
M  V30 59 1 79 80
M  V30 60 1 80 81
M  V30 61 1 82 83
M  V30 62 1 83 84
M  V30 63 1 85 86
M  V30 64 1 86 87
M  V30 65 1 88 89
M  V30 66 1 89 90
M  V30 67 1 91 92
M  V30 68 1 92 93
M  V30 69 1 94 95
M  V30 70 1 95 96
M  V30 71 1 97 98
M  V30 72 1 98 99
M  V30 73 1 2 46
M  V30 74 1 3 94
M  V30 75 1 4 64
M  V30 76 1 5 67
M  V30 77 1 7 73
M  V30 78 1 8 85
M  V30 79 1 9 88
M  V30 80 1 10 82
M  V30 81 1 12 55
M  V30 82 1 13 70
M  V30 83 1 14 61
M  V30 84 1 15 52
M  V30 85 1 17 63
M  V30 86 1 18 49
M  V30 87 1 19 79
M  V30 88 1 20 58
M  V30 89 1 22 75
M  V30 90 1 23 72
M  V30 91 1 24 81
M  V30 92 1 25 76
M  V30 93 1 27 51
M  V30 94 1 28 97
M  V30 95 1 29 66
M  V30 96 1 30 60
M  V30 97 1 32 48
M  V30 98 1 33 99
M  V30 99 1 34 54
M  V30 100 1 35 57
M  V30 101 1 37 78
M  V30 102 1 38 91
M  V30 103 1 39 90
M  V30 104 1 40 69
M  V30 105 1 42 87
M  V30 106 1 43 96
M  V30 107 1 44 93
M  V30 108 1 45 84
M  V30 END BOND
M  V30 END CTAB
M  END

$$$$
