
     RDKit          3D

  0  0  0  0  0  0  0  0  0  0999 V3000
M  V30 BEGIN CTAB
M  V30 COUNTS 99 108 0 0 0
M  V30 BEGIN ATOM
M  V30 1 Pd 4.6157 1.0666 -4.6934 0
M  V30 2 Pb 4.4010 1.8818 -5.2377 0
M  V30 3 Pb 4.7092 0.1818 -4.2484 0
M  V30 4 Pb 5.0004 0.4300 -5.3600 0
M  V30 5 Pb 4.3377 1.6911 -3.9741 0
M  V30 6 Pd 0.7529 -3.5588 4.4315 0
M  V30 7 Pb 0.3459 -3.6983 5.2799 0
M  V30 8 Pb 0.2800 -4.4037 4.1078 0
M  V30 9 Pb 1.3472 -3.6195 3.7061 0
M  V30 10 Pb 1.0919 -2.6379 4.7596 0
M  V30 11 Pd -5.3665 0.2972 -2.3840 0
M  V30 12 Pb -5.6094 0.3104 -3.3416 0
M  V30 13 Pb -5.5230 -0.6739 -2.1108 0
M  V30 14 Pb -5.1257 1.2224 -2.6863 0
M  V30 15 Pb -5.3849 0.4822 -1.4321 0
M  V30 16 Pd -1.8322 4.2041 -5.2812 0
M  V30 17 Pb -2.5475 4.0659 -5.9691 0
M  V30 18 Pb -0.9805 4.3865 -5.8317 0
M  V30 19 Pb -2.6668 3.9768 -4.7435 0
M  V30 20 Pb -1.2054 4.4903 -4.5767 0
M  V30 21 Pd 1.9341 2.6112 5.1363 0
M  V30 22 Pb 2.8319 2.6887 4.7209 0
M  V30 23 Pb 1.1255 2.6042 5.6995 0
M  V30 24 Pb 1.8583 3.5754 4.8821 0
M  V30 25 Pb 2.0120 1.6175 5.3278 0
M  V30 26 Pd -4.7323 -0.9426 5.1794 0
M  V30 27 Pb -3.9232 -0.3631 5.1960 0
M  V30 28 Pb -5.4477 -1.6130 5.1341 0
M  V30 29 Pb -4.4886 -1.2820 6.0557 0
M  V30 30 Pb -4.9474 -0.6051 4.2855 0
M  V30 31 Pd 3.6881 -4.5883 -2.5416 0
M  V30 32 Pb 3.2060 -5.4316 -2.3213 0
M  V30 33 Pb 4.1612 -3.7468 -2.7811 0
M  V30 34 Pb 4.0935 -4.7217 -3.4374 0
M  V30 35 Pb 3.5248 -4.4695 -1.6086 0
M  V30 36 Pd 3.9594 5.7487 -0.6635 0
M  V30 37 Pb 3.4273 6.2079 -1.3637 0
M  V30 38 Pb 4.2343 5.0897 -1.3396 0
M  V30 39 Pb 3.4553 6.2098 0.0530 0
M  V30 40 Pb 4.4957 5.3349 0.0533 0
M  V30 41 Pd -2.9884 -4.6125 0.5905 0
M  V30 42 Pb -3.5644 -3.9479 0.0352 0
M  V30 43 Pb -2.5115 -5.2099 1.2549 0
M  V30 44 Pb -2.1290 -4.5645 0.0791 0
M  V30 45 Pb -3.7947 -4.8770 1.0754 0
M  V30 46 Ag 5.2969 -0.2206 -5.6310 0
M  V30 47 Fe 5.4059 -2.5084 -4.9322 0
M  V30 48 Ag 4.5298 -4.5454 -4.0312 0
M  V30 49 Ag -0.0684 -3.7334 5.8544 0
M  V30 50 Fe -2.1722 -2.8174 6.3159 0
M  V30 51 Ag -4.1917 -1.6584 6.5885 0
M  V30 52 Ag 3.4893 2.9012 4.4655 0
M  V30 53 Fe 4.3943 4.3437 2.8388 0
M  V30 54 Ag 4.8488 5.0769 0.6482 0
M  V30 55 Ag 0.4948 2.5323 6.1011 0
M  V30 56 Fe -1.4008 1.0916 6.2167 0
M  V30 57 Ag -3.3100 0.0388 5.3217 0
M  V30 58 Ag 1.8564 4.2867 4.6496 0
M  V30 59 Fe 2.6873 5.6074 2.8609 0
M  V30 60 Ag 3.1270 6.4455 0.6841 0
M  V30 61 Ag -5.8013 -2.2385 5.0212 0
M  V30 62 Fe -5.1436 -3.8813 3.4553 0
M  V30 63 Ag -4.3496 -4.9971 1.5404 0
M  V30 64 Ag -5.4694 0.6117 -0.7346 0
M  V30 65 Fe -5.8087 -0.1895 1.4378 0
M  V30 66 Ag -5.1042 -0.3268 3.6499 0
M  V30 67 Ag 4.0669 2.4633 -5.5857 0
M  V30 68 Fe 1.9438 3.5361 -5.8973 0
M  V30 69 Ag -0.2609 4.4649 -6.1014 0
M  V30 70 Ag -0.6729 4.8889 -4.2488 0
M  V30 71 Fe 1.3386 5.7970 -3.4172 0
M  V30 72 Ag 2.9774 6.4972 -1.8691 0
M  V30 73 Ag -5.7780 0.6624 -3.9921 0
M  V30 74 Fe -4.9303 2.5350 -5.2175 0
M  V30 75 Ag -3.2439 3.8901 -6.2265 0
M  V30 76 Ag 1.8623 -3.8100 3.2719 0
M  V30 77 Fe 2.6883 -4.5842 1.2471 0
M  V30 78 Ag 3.5617 -4.4978 -0.9014 0
M  V30 79 Ag 2.6897 -5.9085 -2.0905 0
M  V30 80 Fe 0.5575 -5.6174 -1.1126 0
M  V30 81 Ag -1.5019 -4.8739 -0.1960 0
M  V30 82 Ba 4.0763 2.2659 -3.5734 0
M  V30 83 Ga 4.3832 3.3850 -2.6665 0
M  V30 84 Ba 4.1113 4.5191 -1.7819 0
M  V30 85 Ba 4.9431 -0.5165 -4.1131 0
M  V30 86 Ga 4.6418 -1.8847 -3.6687 0
M  V30 87 Ba 4.6081 -3.2393 -3.1029 0
M  V30 88 Ba -5.6021 -1.3961 -1.8606 0
M  V30 89 Ga -4.8035 -2.4015 -1.0783 0
M  V30 90 Ba -4.1461 -3.5699 -0.3433 0
M  V30 91 Ba -5.0547 1.8987 -3.0144 0
M  V30 92 Ga -4.1598 2.7738 -3.8084 0
M  V30 93 Ba -3.3676 3.8402 -4.4620 0
M  V30 94 Ba -0.0951 -5.0203 3.8799 0
M  V30 95 Ga -1.0953 -5.4314 2.8518 0
M  V30 96 Ba -2.1578 -5.6466 1.8098 0
M  V30 97 Ba 1.3379 -1.9977 5.1311 0
M  V30 98 Ga 1.6450 -0.5282 5.1573 0
M  V30 99 Ba 2.0066 0.8802 5.5430 0
M  V30 END ATOM
M  V30 BEGIN BOND
M  V30 1 1 1 2
M  V30 2 1 1 3
M  V30 3 1 1 4
M  V30 4 1 1 5
M  V30 5 1 6 7
M  V30 6 1 6 8
M  V30 7 1 6 9
M  V30 8 1 6 10
M  V30 9 1 11 12
M  V30 10 1 11 13
M  V30 11 1 11 14
M  V30 12 1 11 15
M  V30 13 1 16 17
M  V30 14 1 16 18
M  V30 15 1 16 19
M  V30 16 1 16 20
M  V30 17 1 21 22
M  V30 18 1 21 23
M  V30 19 1 21 24
M  V30 20 1 21 25
M  V30 21 1 26 27
M  V30 22 1 26 28
M  V30 23 1 26 29
M  V30 24 1 26 30
M  V30 25 1 31 32
M  V30 26 1 31 33
M  V30 27 1 31 34
M  V30 28 1 31 35
M  V30 29 1 36 37
M  V30 30 1 36 38
M  V30 31 1 36 39
M  V30 32 1 36 40
M  V30 33 1 41 42
M  V30 34 1 41 43
M  V30 35 1 41 44
M  V30 36 1 41 45
M  V30 37 1 46 47
M  V30 38 1 47 48
M  V30 39 1 49 50
M  V30 40 1 50 51
M  V30 41 1 52 53
M  V30 42 1 53 54
M  V30 43 1 55 56
M  V30 44 1 56 57
M  V30 45 1 58 59
M  V30 46 1 59 60
M  V30 47 1 61 62
M  V30 48 1 62 63
M  V30 49 1 64 65
M  V30 50 1 65 66
M  V30 51 1 67 68
M  V30 52 1 68 69
M  V30 53 1 70 71
M  V30 54 1 71 72
M  V30 55 1 73 74
M  V30 56 1 74 75
M  V30 57 1 76 77
M  V30 58 1 77 78
M  V30 59 1 79 80
M  V30 60 1 80 81
M  V30 61 1 82 83
M  V30 62 1 83 84
M  V30 63 1 85 86
M  V30 64 1 86 87
M  V30 65 1 88 89
M  V30 66 1 89 90
M  V30 67 1 91 92
M  V30 68 1 92 93
M  V30 69 1 94 95
M  V30 70 1 95 96
M  V30 71 1 97 98
M  V30 72 1 98 99
M  V30 73 1 2 67
M  V30 74 1 3 85
M  V30 75 1 4 46
M  V30 76 1 5 82
M  V30 77 1 7 49
M  V30 78 1 8 94
M  V30 79 1 9 76
M  V30 80 1 10 97
M  V30 81 1 12 73
M  V30 82 1 13 88
M  V30 83 1 14 91
M  V30 84 1 15 64
M  V30 85 1 17 75
M  V30 86 1 18 69
M  V30 87 1 19 93
M  V30 88 1 20 70
M  V30 89 1 22 52
M  V30 90 1 23 55
M  V30 91 1 24 58
M  V30 92 1 25 99
M  V30 93 1 27 57
M  V30 94 1 28 61
M  V30 95 1 29 51
M  V30 96 1 30 66
M  V30 97 1 32 79
M  V30 98 1 33 87
M  V30 99 1 34 48
M  V30 100 1 35 78
M  V30 101 1 37 72
M  V30 102 1 38 84
M  V30 103 1 39 60
M  V30 104 1 40 54
M  V30 105 1 42 90
M  V30 106 1 43 96
M  V30 107 1 44 81
M  V30 108 1 45 63
M  V30 END BOND
M  V30 END CTAB
M  END

$$$$
