
     RDKit          3D

  0  0  0  0  0  0  0  0  0  0999 V3000
M  V30 BEGIN CTAB
M  V30 COUNTS 99 108 0 0 0
M  V30 BEGIN ATOM
M  V30 1 Pd 0.8289 -5.1212 -3.0629 0
M  V30 2 Pb 0.1413 -4.6476 -2.5143 0
M  V30 3 Pb 1.5206 -5.5885 -3.6137 0
M  V30 4 Pb 0.9116 -5.8536 -2.3866 0
M  V30 5 Pb 0.8071 -4.3499 -3.6962 0
M  V30 6 Pd 5.1969 -6.5661 -1.3556 0
M  V30 7 Pb 5.4264 -6.2594 -0.4325 0
M  V30 8 Pb 4.3432 -6.9788 -1.0366 0
M  V30 9 Pb 4.9245 -6.7831 -2.2907 0
M  V30 10 Pb 6.0075 -6.0879 -1.6905 0
M  V30 11 Pd 0.2423 4.5943 4.1254 0
M  V30 12 Pb -0.5480 4.8331 4.6767 0
M  V30 13 Pb 0.9622 4.2700 3.5110 0
M  V30 14 Pb 0.1094 5.4449 3.6142 0
M  V30 15 Pb 0.2893 3.7364 4.6342 0
M  V30 16 Pd -3.1277 6.4622 0.0316 0
M  V30 17 Pb -2.3565 6.1648 -0.5322 0
M  V30 18 Pb -3.9699 6.5267 0.5708 0
M  V30 19 Pb -3.7212 6.2124 -0.7247 0
M  V30 20 Pb -2.4993 6.7652 0.7541 0
M  V30 21 Pd -1.1453 -0.4069 2.8474 0
M  V30 22 Pb -2.1068 -0.5011 3.1189 0
M  V30 23 Pb -0.1892 -0.2805 2.5749 0
M  V30 24 Pb -0.9070 0.0540 3.7019 0
M  V30 25 Pb -1.3588 -0.9139 2.0132 0
M  V30 26 Pd 5.9691 -1.8028 -0.4071 0
M  V30 27 Pb 6.0164 -2.5178 0.2919 0
M  V30 28 Pb 5.8864 -1.1161 -1.1300 0
M  V30 29 Pb 6.5845 -2.3517 -0.9721 0
M  V30 30 Pb 5.3272 -1.2759 0.1514 0
M  V30 31 Pd -5.8625 2.3828 2.0950 0
M  V30 32 Pb -5.5825 1.5125 2.5086 0
M  V30 33 Pb -6.1573 1.8596 1.2855 0
M  V30 34 Pb -5.5916 2.8621 2.9234 0
M  V30 35 Pb -6.0907 3.3027 1.7481 0
M  V30 36 Pd 1.6749 -0.0006 -1.9838 0
M  V30 37 Pb 0.8622 -0.3716 -1.5297 0
M  V30 38 Pb 1.9124 0.5687 -1.1921 0
M  V30 39 Pb 1.4501 -0.5287 -2.8057 0
M  V30 40 Pb 2.5344 0.2921 -2.4000 0
M  V30 41 Pd -3.6866 0.4053 -2.3566 0
M  V30 42 Pb -4.2208 1.0812 -2.8488 0
M  V30 43 Pb -2.8625 0.9083 -2.6216 0
M  V30 44 Pb -4.5423 0.0965 -1.9426 0
M  V30 45 Pb -3.1266 -0.2149 -1.8115 0
M  V30 46 Ag -4.1319 5.9644 -1.2906 0
M  V30 47 Fe -4.5710 3.9453 -2.4316 0
M  V30 48 Ag -4.5678 1.6829 -3.1027 0
M  V30 49 Ag 0.5324 -0.1323 2.4228 0
M  V30 50 Fe 2.6663 -0.5550 1.4655 0
M  V30 51 Ag 4.8391 -0.8742 0.5566 0
M  V30 52 Ag -1.2138 4.9086 4.9930 0
M  V30 53 Fe -3.4019 4.1841 4.4689 0
M  V30 54 Ag -5.3506 3.2454 3.5139 0
M  V30 55 Ag -0.3725 -4.2606 -2.1303 0
M  V30 56 Fe -0.9453 -2.7921 -0.3550 0
M  V30 57 Ag -1.5411 -1.3240 1.4131 0
M  V30 58 Ag -1.8856 5.7818 -0.9745 0
M  V30 59 Fe -1.8556 3.6249 -1.9724 0
M  V30 60 Ag -2.3136 1.4133 -2.7132 0
M  V30 61 Ag 1.4595 3.9581 3.0427 0
M  V30 62 Fe 1.7980 2.4958 1.1983 0
M  V30 63 Ag 2.1425 1.0315 -0.6433 0
M  V30 64 Ba -0.0547 6.0942 3.2729 0
M  V30 65 Ga -1.0246 6.5337 2.2457 0
M  V30 66 Ba -1.9749 7.0317 1.2271 0
M  V30 67 Ba 0.2776 -0.7051 -1.1934 0
M  V30 68 Ga -1.1941 -0.6710 -1.2913 0
M  V30 69 Ba -2.6653 -0.6296 -1.3938 0
M  V30 70 Ba 6.5847 -5.6704 -1.9212 0
M  V30 71 Ga 6.8591 -4.2420 -1.6851 0
M  V30 72 Ba 7.0183 -2.8098 -1.3768 0
M  V30 73 Ba 2.0556 -5.9577 -3.9876 0
M  V30 74 Ga 3.3719 -6.4513 -3.5472 0
M  V30 75 Ba 4.6594 -6.8899 -2.9817 0
M  V30 76 Ba -6.3804 1.3746 0.7465 0
M  V30 77 Ga -5.7999 0.6844 -0.4306 0
M  V30 78 Ba -5.2099 0.0061 -1.6099 0
M  V30 79 Ba 1.0450 -6.3898 -1.8788 0
M  V30 80 Ga 2.3270 -6.8637 -1.3225 0
M  V30 81 Ba 3.6693 -7.2476 -0.8444 0
M  V30 82 Ba 0.8025 -3.7356 -4.1237 0
M  V30 83 Ga 1.0404 -2.3167 -3.7949 0
M  V30 84 Ba 1.2831 -0.9063 -3.4348 0
M  V30 85 Ba 5.5971 -5.9532 0.2299 0
M  V30 86 Ga 5.8316 -4.5361 0.5665 0
M  V30 87 Ba 6.0438 -3.0912 0.7759 0
M  V30 88 Ba 5.7751 -0.6095 -1.6724 0
M  V30 89 Ga 4.5287 -0.0324 -2.2081 0
M  V30 90 Ba 3.2160 0.4686 -2.6545 0
M  V30 91 Ba -2.8334 -0.5868 3.2994 0
M  V30 92 Ga -4.0917 0.1552 3.0626 0
M  V30 93 Ba -5.3674 0.8725 2.8432 0
M  V30 94 Ba 0.2568 3.0956 5.0203 0
M  V30 95 Ga -0.2018 1.7347 4.6872 0
M  V30 96 Ba -0.6655 0.3812 4.3321 0
M  V30 97 Ba -4.6657 6.4528 0.8551 0
M  V30 98 Ga -5.4498 5.2518 1.2502 0
M  V30 99 Ba -6.2265 4.0432 1.6364 0
M  V30 END ATOM
M  V30 BEGIN BOND
M  V30 1 1 1 2
M  V30 2 1 1 3
M  V30 3 1 1 4
M  V30 4 1 1 5
M  V30 5 1 6 7
M  V30 6 1 6 8
M  V30 7 1 6 9
M  V30 8 1 6 10
M  V30 9 1 11 12
M  V30 10 1 11 13
M  V30 11 1 11 14
M  V30 12 1 11 15
M  V30 13 1 16 17
M  V30 14 1 16 18
M  V30 15 1 16 19
M  V30 16 1 16 20
M  V30 17 1 21 22
M  V30 18 1 21 23
M  V30 19 1 21 24
M  V30 20 1 21 25
M  V30 21 1 26 27
M  V30 22 1 26 28
M  V30 23 1 26 29
M  V30 24 1 26 30
M  V30 25 1 31 32
M  V30 26 1 31 33
M  V30 27 1 31 34
M  V30 28 1 31 35
M  V30 29 1 36 37
M  V30 30 1 36 38
M  V30 31 1 36 39
M  V30 32 1 36 40
M  V30 33 1 41 42
M  V30 34 1 41 43
M  V30 35 1 41 44
M  V30 36 1 41 45
M  V30 37 1 46 47
M  V30 38 1 47 48
M  V30 39 1 49 50
M  V30 40 1 50 51
M  V30 41 1 52 53
M  V30 42 1 53 54
M  V30 43 1 55 56
M  V30 44 1 56 57
M  V30 45 1 58 59
M  V30 46 1 59 60
M  V30 47 1 61 62
M  V30 48 1 62 63
M  V30 49 1 64 65
M  V30 50 1 65 66
M  V30 51 1 67 68
M  V30 52 1 68 69
M  V30 53 1 70 71
M  V30 54 1 71 72
M  V30 55 1 73 74
M  V30 56 1 74 75
M  V30 57 1 76 77
M  V30 58 1 77 78
M  V30 59 1 79 80
M  V30 60 1 80 81
M  V30 61 1 82 83
M  V30 62 1 83 84
M  V30 63 1 85 86
M  V30 64 1 86 87
M  V30 65 1 88 89
M  V30 66 1 89 90
M  V30 67 1 91 92
M  V30 68 1 92 93
M  V30 69 1 94 95
M  V30 70 1 95 96
M  V30 71 1 97 98
M  V30 72 1 98 99
M  V30 73 1 2 55
M  V30 74 1 3 73
M  V30 75 1 4 79
M  V30 76 1 5 82
M  V30 77 1 7 85
M  V30 78 1 8 81
M  V30 79 1 9 75
M  V30 80 1 10 70
M  V30 81 1 12 52
M  V30 82 1 13 61
M  V30 83 1 14 64
M  V30 84 1 15 94
M  V30 85 1 17 58
M  V30 86 1 18 97
M  V30 87 1 19 46
M  V30 88 1 20 66
M  V30 89 1 22 91
M  V30 90 1 23 49
M  V30 91 1 24 96
M  V30 92 1 25 57
M  V30 93 1 27 87
M  V30 94 1 28 88
M  V30 95 1 29 72
M  V30 96 1 30 51
M  V30 97 1 32 93
M  V30 98 1 33 76
M  V30 99 1 34 54
M  V30 100 1 35 99
M  V30 101 1 37 67
M  V30 102 1 38 63
M  V30 103 1 39 84
M  V30 104 1 40 90
M  V30 105 1 42 48
M  V30 106 1 43 60
M  V30 107 1 44 78
M  V30 108 1 45 69
M  V30 END BOND
M  V30 END CTAB
M  END

$$$$
