
     RDKit          3D

  0  0  0  0  0  0  0  0  0  0999 V3000
M  V30 BEGIN CTAB
M  V30 COUNTS 99 108 0 0 0
M  V30 BEGIN ATOM
M  V30 1 Pd -3.1155 -4.9823 3.4644 0
M  V30 2 Pb -2.3509 -5.6208 3.4584 0
M  V30 3 Pb -3.9379 -4.4201 3.2981 0
M  V30 4 Pb -2.5144 -4.3927 2.9169 0
M  V30 5 Pb -3.6077 -5.3279 4.2602 0
M  V30 6 Pd -4.5494 3.5325 -0.0700 0
M  V30 7 Pb -3.8593 4.0578 -0.5637 0
M  V30 8 Pb -4.5483 2.8265 -0.7689 0
M  V30 9 Pb -4.4065 4.0592 0.7669 0
M  V30 10 Pb -5.1243 2.9200 0.4630 0
M  V30 11 Pd -4.1728 -0.3746 2.2685 0
M  V30 12 Pb -4.2933 -0.4842 3.2584 0
M  V30 13 Pb -5.0259 -0.8729 2.2121 0
M  V30 14 Pb -4.1205 -0.2997 1.2664 0
M  V30 15 Pb -3.1972 -0.1938 2.3642 0
M  V30 16 Pd 3.4525 1.6966 2.6160 0
M  V30 17 Pb 3.9071 1.2602 1.8568 0
M  V30 18 Pb 4.0769 2.4623 2.4454 0
M  V30 19 Pb 2.7778 0.9697 2.6771 0
M  V30 20 Pb 3.0192 2.0337 3.4465 0
M  V30 21 Pd -1.3731 0.0981 4.4583 0
M  V30 22 Pb -0.4723 0.4638 4.7230 0
M  V30 23 Pb -1.0487 -0.7343 3.9848 0
M  V30 24 Pb -1.7396 0.9936 4.7168 0
M  V30 25 Pb -2.3051 -0.1529 4.2152 0
M  V30 26 Pd 4.6308 2.4386 -2.0297 0
M  V30 27 Pb 5.4583 1.9039 -2.2008 0
M  V30 28 Pb 4.1404 1.8055 -2.6428 0
M  V30 29 Pb 5.0461 2.9774 -1.2863 0
M  V30 30 Pb 3.9091 3.1234 -2.1281 0
M  V30 31 Pd 3.9285 -0.5702 -4.8089 0
M  V30 32 Pb 4.8517 -0.2659 -5.0232 0
M  V30 33 Pb 3.3880 -0.1949 -5.5571 0
M  V30 34 Pb 3.9034 -1.2362 -5.5502 0
M  V30 35 Pb 4.2594 -0.4557 -3.8863 0
M  V30 36 Pd -0.2494 2.5261 -3.7255 0
M  V30 37 Pb -0.7691 1.7293 -3.4141 0
M  V30 38 Pb 0.3754 3.2915 -3.8238 0
M  V30 39 Pb 0.2095 2.0199 -4.4731 0
M  V30 40 Pb -0.7391 3.1294 -3.0893 0
M  V30 41 Pd 1.1229 -4.3424 -1.9528 0
M  V30 42 Pb 0.9535 -5.0533 -1.2650 0
M  V30 43 Pb 1.7181 -4.9150 -2.5134 0
M  V30 44 Pb 0.4161 -3.7410 -1.5859 0
M  V30 45 Pb 1.3746 -3.5688 -2.5507 0
M  V30 46 Ag -1.0750 1.1470 -3.0496 0
M  V30 47 Fe -0.7254 -1.0464 -2.2047 0
M  V30 48 Ag -0.1283 -3.2342 -1.4955 0
M  V30 49 Ag 3.7644 1.2814 -3.0434 0
M  V30 50 Fe 2.6656 -0.8371 -3.0393 0
M  V30 51 Ag 1.5842 -2.9629 -2.9589 0
M  V30 52 Ag -1.7711 -6.0302 3.2241 0
M  V30 53 Fe -0.3489 -5.9419 1.3227 0
M  V30 54 Ag 0.8547 -5.5227 -0.6835 0
M  V30 55 Ag -3.9785 -5.1519 4.8762 0
M  V30 56 Fe -4.4993 -2.8508 4.9804 0
M  V30 57 Ag -4.4659 -0.7209 3.9506 0
M  V30 58 Ag -2.4568 -0.2660 2.4494 0
M  V30 59 Fe -0.1332 0.1951 2.5647 0
M  V30 60 Ag 2.2158 0.4844 2.7233 0
M  V30 61 Ag -4.2344 4.2627 1.4676 0
M  V30 62 Fe -3.1603 3.1875 3.2938 0
M  V30 63 Ag -2.0350 1.6840 4.7496 0
M  V30 64 Ag 4.2781 0.9368 1.3083 0
M  V30 65 Fe 4.4043 0.2689 -0.9519 0
M  V30 66 Ag 4.5468 -0.4052 -3.2093 0
M  V30 67 Ag -5.4011 2.3882 0.9022 0
M  V30 68 Fe -4.4773 0.9478 2.5356 0
M  V30 69 Ag -3.0167 -0.2013 4.0017 0
M  V30 70 Ag 3.8978 -1.9129 -5.8603 0
M  V30 71 Fe 3.1386 -3.8980 -4.8227 0
M  V30 72 Ag 2.1047 -5.1541 -3.1052 0
M  V30 73 Ba 2.6508 2.1176 4.0921 0
M  V30 74 Ga 1.3773 1.5002 4.5303 0
M  V30 75 Ba 0.1117 0.8752 4.9803 0
M  V30 76 Ba -4.6022 -4.0849 3.1392 0
M  V30 77 Ga -5.1242 -2.7711 2.7017 0
M  V30 78 Ba -5.5297 -1.4141 2.2757 0
M  V30 79 Ba 3.4594 3.6847 -2.3471 0
M  V30 80 Ga 2.1640 3.8033 -3.0397 0
M  V30 81 Ba 0.8560 3.8498 -3.7162 0
M  V30 82 Ba 4.5517 2.9842 2.1773 0
M  V30 83 Ga 4.9593 3.2149 0.7672 0
M  V30 84 Ba 5.2922 3.3524 -0.6746 0
M  V30 85 Ba -1.9703 -3.9387 2.6496 0
M  V30 86 Ga -1.4355 -2.6176 3.0831 0
M  V30 87 Ba -0.8792 -1.3011 3.5033 0
M  V30 88 Ba -3.2961 4.4139 -0.9045 0
M  V30 89 Ga -2.1968 4.0022 -1.8024 0
M  V30 90 Ba -1.0632 3.6865 -2.6959 0
M  V30 91 Ba -4.4898 2.1787 -1.1309 0
M  V30 92 Ga -4.3041 0.9124 -0.3959 0
M  V30 93 Ba -4.1257 -0.2380 0.5128 0
M  V30 94 Ba 2.8621 0.1184 -5.9895 0
M  V30 95 Ga 1.6938 0.9233 -5.5505 0
M  V30 96 Ba 0.5251 1.7219 -5.1007 0
M  V30 97 Ba 6.0444 1.5721 -2.5349 0
M  V30 98 Ga 5.9584 0.7471 -3.7564 0
M  V30 99 Ba 5.5638 -0.0605 -4.9270 0
M  V30 END ATOM
M  V30 BEGIN BOND
M  V30 1 1 1 2
M  V30 2 1 1 3
M  V30 3 1 1 4
M  V30 4 1 1 5
M  V30 5 1 6 7
M  V30 6 1 6 8
M  V30 7 1 6 9
M  V30 8 1 6 10
M  V30 9 1 11 12
M  V30 10 1 11 13
M  V30 11 1 11 14
M  V30 12 1 11 15
M  V30 13 1 16 17
M  V30 14 1 16 18
M  V30 15 1 16 19
M  V30 16 1 16 20
M  V30 17 1 21 22
M  V30 18 1 21 23
M  V30 19 1 21 24
M  V30 20 1 21 25
M  V30 21 1 26 27
M  V30 22 1 26 28
M  V30 23 1 26 29
M  V30 24 1 26 30
M  V30 25 1 31 32
M  V30 26 1 31 33
M  V30 27 1 31 34
M  V30 28 1 31 35
M  V30 29 1 36 37
M  V30 30 1 36 38
M  V30 31 1 36 39
M  V30 32 1 36 40
M  V30 33 1 41 42
M  V30 34 1 41 43
M  V30 35 1 41 44
M  V30 36 1 41 45
M  V30 37 1 46 47
M  V30 38 1 47 48
M  V30 39 1 49 50
M  V30 40 1 50 51
M  V30 41 1 52 53
M  V30 42 1 53 54
M  V30 43 1 55 56
M  V30 44 1 56 57
M  V30 45 1 58 59
M  V30 46 1 59 60
M  V30 47 1 61 62
M  V30 48 1 62 63
M  V30 49 1 64 65
M  V30 50 1 65 66
M  V30 51 1 67 68
M  V30 52 1 68 69
M  V30 53 1 70 71
M  V30 54 1 71 72
M  V30 55 1 73 74
M  V30 56 1 74 75
M  V30 57 1 76 77
M  V30 58 1 77 78
M  V30 59 1 79 80
M  V30 60 1 80 81
M  V30 61 1 82 83
M  V30 62 1 83 84
M  V30 63 1 85 86
M  V30 64 1 86 87
M  V30 65 1 88 89
M  V30 66 1 89 90
M  V30 67 1 91 92
M  V30 68 1 92 93
M  V30 69 1 94 95
M  V30 70 1 95 96
M  V30 71 1 97 98
M  V30 72 1 98 99
M  V30 73 1 2 52
M  V30 74 1 3 76
M  V30 75 1 4 85
M  V30 76 1 5 55
M  V30 77 1 7 88
M  V30 78 1 8 91
M  V30 79 1 9 61
M  V30 80 1 10 67
M  V30 81 1 12 57
M  V30 82 1 13 78
M  V30 83 1 14 93
M  V30 84 1 15 58
M  V30 85 1 17 64
M  V30 86 1 18 82
M  V30 87 1 19 60
M  V30 88 1 20 73
M  V30 89 1 22 75
M  V30 90 1 23 87
M  V30 91 1 24 63
M  V30 92 1 25 69
M  V30 93 1 27 97
M  V30 94 1 28 49
M  V30 95 1 29 84
M  V30 96 1 30 79
M  V30 97 1 32 99
M  V30 98 1 33 94
M  V30 99 1 34 70
M  V30 100 1 35 66
M  V30 101 1 37 46
M  V30 102 1 38 81
M  V30 103 1 39 96
M  V30 104 1 40 90
M  V30 105 1 42 54
M  V30 106 1 43 72
M  V30 107 1 44 48
M  V30 108 1 45 51
M  V30 END BOND
M  V30 END CTAB
M  END

$$$$
