
     RDKit          3D

  0  0  0  0  0  0  0  0  0  0999 V3000
M  V30 BEGIN CTAB
M  V30 COUNTS 99 108 0 0 0
M  V30 BEGIN ATOM
M  V30 1 Pd 4.5701 2.8508 -0.3966 0
M  V30 2 Pb 3.8944 3.3897 -0.9008 0
M  V30 3 Pb 5.0107 2.6342 -1.2710 0
M  V30 4 Pb 4.1590 3.0954 0.4854 0
M  V30 5 Pb 5.2446 2.3043 0.1025 0
M  V30 6 Pd 0.5362 -4.7690 -3.9630 0
M  V30 7 Pb -0.1952 -4.1864 -3.6050 0
M  V30 8 Pb 0.5700 -4.2402 -4.8127 0
M  V30 9 Pb 0.7003 -5.1836 -3.0706 0
M  V30 10 Pb 1.2951 -5.3020 -4.3289 0
M  V30 11 Pd -6.3269 -0.2655 -0.7530 0
M  V30 12 Pb -6.0095 -0.4142 -1.6834 0
M  V30 13 Pb -6.3554 -1.2552 -0.6081 0
M  V30 14 Pb -6.6395 -0.1113 0.1857 0
M  V30 15 Pb -6.2352 0.7364 -0.8995 0
M  V30 16 Pd -4.2510 1.0701 6.4307 0
M  V30 17 Pb -5.0730 0.9442 5.8756 0
M  V30 18 Pb -4.4354 2.0475 6.5062 0
M  V30 19 Pb -4.0457 0.1019 6.3013 0
M  V30 20 Pb -3.3828 1.2205 6.9066 0
M  V30 21 Pd -2.4707 -3.2442 0.7516 0
M  V30 22 Pb -2.2902 -3.0718 -0.2188 0
M  V30 23 Pb -3.3899 -3.5533 0.5069 0
M  V30 24 Pb -2.6754 -3.3678 1.7208 0
M  V30 25 Pb -1.5884 -2.8653 1.0345 0
M  V30 26 Pd -0.9487 4.5772 5.1040 0
M  V30 27 Pb -1.8708 4.7398 5.4527 0
M  V30 28 Pb -1.1523 5.1629 4.3220 0
M  V30 29 Pb -0.0225 4.4145 4.7567 0
M  V30 30 Pb -0.8023 3.9395 5.8621 0
M  V30 31 Pd -2.7565 4.2509 -2.2397 0
M  V30 32 Pb -1.8133 4.4934 -2.4625 0
M  V30 33 Pb -2.6865 4.8544 -1.4471 0
M  V30 34 Pb -3.6910 3.9568 -1.9679 0
M  V30 35 Pb -2.8078 3.6414 -3.0235 0
M  V30 36 Pd 5.2195 -2.4262 0.9700 0
M  V30 37 Pb 4.3899 -2.1087 1.4236 0
M  V30 38 Pb 6.0113 -2.7110 0.4298 0
M  V30 39 Pb 4.7106 -3.2646 0.7673 0
M  V30 40 Pb 5.6949 -1.5661 1.1611 0
M  V30 41 Pd 6.4216 -2.1231 -5.9369 0
M  V30 42 Pb 5.5868 -1.9626 -6.4675 0
M  V30 43 Pb 6.5072 -1.1535 -5.7086 0
M  V30 44 Pb 7.1216 -2.3404 -5.2600 0
M  V30 45 Pb 6.2530 -3.0967 -6.0611 0
M  V30 46 Ag 3.4000 3.7783 -1.3108 0
M  V30 47 Fe 1.1631 4.2410 -1.9610 0
M  V30 48 Ag -1.0923 4.6643 -2.5728 0
M  V30 49 Ag -0.9665 -2.5542 1.3193 0
M  V30 50 Fe 1.3777 -2.2271 1.5124 0
M  V30 51 Ag 3.7235 -1.9056 1.6952 0
M  V30 52 Ag -3.9040 -0.6131 6.1335 0
M  V30 53 Fe -3.3595 -2.1013 4.3678 0
M  V30 54 Ag -2.8157 -3.3956 2.4552 0
M  V30 55 Ag 1.9072 -5.6059 -4.6282 0
M  V30 56 Fe 4.0371 -4.9458 -5.4262 0
M  V30 57 Ag 6.0040 -3.7986 -6.0765 0
M  V30 58 Ag 0.7631 -3.8185 -5.4047 0
M  V30 59 Fe 2.7238 -2.7854 -6.2681 0
M  V30 60 Ag 4.8927 -1.9410 -6.7578 0
M  V30 61 Ag -5.7018 -0.3982 -2.3571 0
M  V30 62 Fe -4.2531 1.1546 -3.3785 0
M  V30 63 Ag -2.9372 3.1045 -3.5170 0
M  V30 64 Ag -6.8650 0.0054 0.8928 0
M  V30 65 Fe -6.3104 0.4244 3.1646 0
M  V30 66 Ag -5.6508 0.8421 5.4084 0
M  V30 67 Ag 0.9757 -5.4177 -2.4154 0
M  V30 68 Fe 2.5898 -4.7507 -0.8057 0
M  V30 69 Ag 4.2516 -3.8438 0.6292 0
M  V30 70 Ag 3.9077 3.2742 1.1728 0
M  V30 71 Fe 2.2419 3.7804 2.7929 0
M  V30 72 Ag 0.6785 4.3002 4.5080 0
M  V30 73 Ag 6.5825 -2.8519 -0.0350 0
M  V30 74 Fe 7.2355 -2.7529 -2.3149 0
M  V30 75 Ag 7.5250 -2.5310 -4.6600 0
M  V30 76 Ag 5.3392 2.5022 -1.9353 0
M  V30 77 Fe 5.9532 1.0520 -3.7157 0
M  V30 78 Ag 6.5412 -0.4444 -5.4662 0
M  V30 79 Ag -1.3515 5.5602 3.7203 0
M  V30 80 Fe -1.9753 5.4925 1.4318 0
M  V30 81 Ag -2.5849 5.2991 -0.8534 0
M  V30 82 Ba -0.7313 -3.7139 -3.3731 0
M  V30 83 Ga -1.4442 -3.3548 -2.1304 0
M  V30 84 Ba -2.2163 -2.9154 -0.9505 0
M  V30 85 Ba -4.5198 2.7896 6.5329 0
M  V30 86 Ga -3.5803 3.8536 6.1432 0
M  V30 87 Ba -2.5631 4.8313 5.7235 0
M  V30 88 Ba -6.1928 1.4938 -1.0073 0
M  V30 89 Ga -5.2372 2.5767 -1.3929 0
M  V30 90 Ba -4.4021 3.7607 -1.7606 0
M  V30 91 Ba -2.7162 1.3783 7.2159 0
M  V30 92 Ga -1.7032 2.3927 6.8583 0
M  V30 93 Ba -0.7558 3.4387 6.4206 0
M  V30 94 Ba 5.7415 1.9037 0.4990 0
M  V30 95 Ga 5.8952 0.4871 0.8869 0
M  V30 96 Ba 6.0658 -0.9248 1.2848 0
M  V30 97 Ba -6.3318 -1.9981 -0.5028 0
M  V30 98 Ga -5.2396 -2.9007 -0.0901 0
M  V30 99 Ba -4.0958 -3.7340 0.3282 0
M  V30 END ATOM
M  V30 BEGIN BOND
M  V30 1 1 1 2
M  V30 2 1 1 3
M  V30 3 1 1 4
M  V30 4 1 1 5
M  V30 5 1 6 7
M  V30 6 1 6 8
M  V30 7 1 6 9
M  V30 8 1 6 10
M  V30 9 1 11 12
M  V30 10 1 11 13
M  V30 11 1 11 14
M  V30 12 1 11 15
M  V30 13 1 16 17
M  V30 14 1 16 18
M  V30 15 1 16 19
M  V30 16 1 16 20
M  V30 17 1 21 22
M  V30 18 1 21 23
M  V30 19 1 21 24
M  V30 20 1 21 25
M  V30 21 1 26 27
M  V30 22 1 26 28
M  V30 23 1 26 29
M  V30 24 1 26 30
M  V30 25 1 31 32
M  V30 26 1 31 33
M  V30 27 1 31 34
M  V30 28 1 31 35
M  V30 29 1 36 37
M  V30 30 1 36 38
M  V30 31 1 36 39
M  V30 32 1 36 40
M  V30 33 1 41 42
M  V30 34 1 41 43
M  V30 35 1 41 44
M  V30 36 1 41 45
M  V30 37 1 46 47
M  V30 38 1 47 48
M  V30 39 1 49 50
M  V30 40 1 50 51
M  V30 41 1 52 53
M  V30 42 1 53 54
M  V30 43 1 55 56
M  V30 44 1 56 57
M  V30 45 1 58 59
M  V30 46 1 59 60
M  V30 47 1 61 62
M  V30 48 1 62 63
M  V30 49 1 64 65
M  V30 50 1 65 66
M  V30 51 1 67 68
M  V30 52 1 68 69
M  V30 53 1 70 71
M  V30 54 1 71 72
M  V30 55 1 73 74
M  V30 56 1 74 75
M  V30 57 1 76 77
M  V30 58 1 77 78
M  V30 59 1 79 80
M  V30 60 1 80 81
M  V30 61 1 82 83
M  V30 62 1 83 84
M  V30 63 1 85 86
M  V30 64 1 86 87
M  V30 65 1 88 89
M  V30 66 1 89 90
M  V30 67 1 91 92
M  V30 68 1 92 93
M  V30 69 1 94 95
M  V30 70 1 95 96
M  V30 71 1 97 98
M  V30 72 1 98 99
M  V30 73 1 2 46
M  V30 74 1 3 76
M  V30 75 1 4 70
M  V30 76 1 5 94
M  V30 77 1 7 82
M  V30 78 1 8 58
M  V30 79 1 9 67
M  V30 80 1 10 55
M  V30 81 1 12 61
M  V30 82 1 13 97
M  V30 83 1 14 64
M  V30 84 1 15 88
M  V30 85 1 17 66
M  V30 86 1 18 85
M  V30 87 1 19 52
M  V30 88 1 20 91
M  V30 89 1 22 84
M  V30 90 1 23 99
M  V30 91 1 24 54
M  V30 92 1 25 49
M  V30 93 1 27 87
M  V30 94 1 28 79
M  V30 95 1 29 72
M  V30 96 1 30 93
M  V30 97 1 32 48
M  V30 98 1 33 81
M  V30 99 1 34 90
M  V30 100 1 35 63
M  V30 101 1 37 51
M  V30 102 1 38 73
M  V30 103 1 39 69
M  V30 104 1 40 96
M  V30 105 1 42 60
M  V30 106 1 43 78
M  V30 107 1 44 75
M  V30 108 1 45 57
M  V30 END BOND
M  V30 END CTAB
M  END

$$$$
