
     RDKit          3D

  0  0  0  0  0  0  0  0  0  0999 V3000
M  V30 BEGIN CTAB
M  V30 COUNTS 99 108 0 0 0
M  V30 BEGIN ATOM
M  V30 1 Pd -3.3393 1.7396 -2.6286 0
M  V30 2 Pb -3.1009 1.2302 -3.4596 0
M  V30 3 Pb -3.0662 2.5999 -3.0717 0
M  V30 4 Pb -3.6963 0.9127 -2.1955 0
M  V30 5 Pb -3.5783 2.2040 -1.7775 0
M  V30 6 Pd -3.9979 -2.9767 3.5831 0
M  V30 7 Pb -3.5870 -3.4281 4.3709 0
M  V30 8 Pb -3.4142 -2.1853 3.7612 0
M  V30 9 Pb -4.3167 -2.5917 2.7171 0
M  V30 10 Pb -4.4196 -3.8410 3.3275 0
M  V30 11 Pd 0.6655 -3.8379 3.2726 0
M  V30 12 Pb 1.2399 -3.4659 2.5429 0
M  V30 13 Pb 0.3261 -2.9211 3.4988 0
M  V30 14 Pb 0.9321 -4.7669 3.0035 0
M  V30 15 Pb 0.1064 -4.1929 4.0220 0
M  V30 16 Pd -0.2221 -2.7092 -4.2774 0
M  V30 17 Pb -0.9749 -3.3583 -4.1588 0
M  V30 18 Pb 0.5615 -2.1038 -4.4070 0
M  V30 19 Pb 0.4139 -3.4122 -3.9581 0
M  V30 20 Pb -0.8503 -2.0049 -4.6219 0
M  V30 21 Pd 3.3332 0.8592 2.3787 0
M  V30 22 Pb 2.5333 0.6603 2.9440 0
M  V30 23 Pb 4.1537 1.0340 1.8283 0
M  V30 24 Pb 3.2285 -0.0191 1.9106 0
M  V30 25 Pb 3.4030 1.7479 2.8409 0
M  V30 26 Pd -0.6903 -6.7583 -0.9522 0
M  V30 27 Pb 0.1097 -6.4758 -1.4772 0
M  V30 28 Pb -1.2763 -6.4674 -1.7104 0
M  V30 29 Pb -0.1072 -6.9718 -0.1642 0
M  V30 30 Pb -1.5068 -6.9959 -0.4301 0
M  V30 31 Pd -0.0016 6.5965 -2.6982 0
M  V30 32 Pb 0.6814 6.1667 -3.3109 0
M  V30 33 Pb -0.5861 6.9512 -1.9738 0
M  V30 34 Pb 0.7286 7.1234 -2.2780 0
M  V30 35 Pb -0.7444 6.0737 -3.1269 0
M  V30 36 Pd -0.4889 3.9680 3.8154 0
M  V30 37 Pb -0.6454 4.8852 3.4548 0
M  V30 38 Pb 0.4822 4.1313 4.0010 0
M  V30 39 Pb -1.4171 3.7834 3.5040 0
M  V30 40 Pb -0.3607 3.0211 4.1029 0
M  V30 41 Pd 4.6628 3.1803 -2.4015 0
M  V30 42 Pb 4.4004 2.3603 -2.9070 0
M  V30 43 Pb 4.9375 4.0122 -1.9324 0
M  V30 44 Pb 4.0803 3.7267 -3.0305 0
M  V30 45 Pb 5.1777 2.6470 -1.7298 0
M  V30 46 Ag 1.1849 -1.7001 -4.5016 0
M  V30 47 Fe 2.6681 0.0480 -3.8871 0
M  V30 48 Ag 4.1953 1.7767 -3.3282 0
M  V30 49 Ag -3.7579 2.4651 -1.0989 0
M  V30 50 Fe -3.0170 3.0980 1.0642 0
M  V30 51 Ag -2.0720 3.6973 3.1559 0
M  V30 52 Ag -4.5785 -4.5150 3.0553 0
M  V30 53 Fe -3.5324 -5.9942 1.5298 0
M  V30 54 Ag -2.1318 -7.0940 -0.0325 0
M  V30 55 Ag -0.8844 7.1774 -1.3280 0
M  V30 56 Fe -0.9679 6.4977 0.9426 0
M  V30 57 Ag -0.8553 5.5064 3.0945 0
M  V30 58 Ag 1.3364 7.4014 -1.9606 0
M  V30 59 Fe 3.4448 6.4433 -1.5447 0
M  V30 60 Ag 5.0063 4.6862 -1.6365 0
M  V30 61 Ag -4.0254 0.3431 -1.8358 0
M  V30 62 Fe -4.2574 -1.0086 0.1033 0
M  V30 63 Ag -4.5175 -2.3779 2.0265 0
M  V30 64 Ba 1.2210 5.8466 -3.7465 0
M  V30 65 Ga 2.4249 4.9771 -3.5808 0
M  V30 66 Ba 3.6435 4.1145 -3.5267 0
M  V30 67 Ba -1.5058 -3.8822 -4.0694 0
M  V30 68 Ga -1.6305 -5.0501 -3.1739 0
M  V30 69 Ba -1.7176 -6.2079 -2.2607 0
M  V30 70 Ba -2.9262 3.2404 -3.4467 0
M  V30 71 Ga -2.0742 4.4508 -3.4062 0
M  V30 72 Ba -1.2926 5.7057 -3.4912 0
M  V30 73 Ba 1.6824 -3.1926 2.0021 0
M  V30 74 Ga 2.4105 -1.9283 1.7803 0
M  V30 75 Ba 3.1439 -0.6695 1.5454 0
M  V30 76 Ba 0.8960 -3.9388 -3.7273 0
M  V30 77 Ga 0.8139 -5.0890 -2.8097 0
M  V30 78 Ba 0.6863 -6.2281 -1.8837 0
M  V30 79 Ba -2.8781 -1.6727 3.8722 0
M  V30 80 Ga -1.4183 -1.8877 3.7868 0
M  V30 81 Ba 0.0075 -2.2586 3.6647 0
M  V30 82 Ba 4.7798 1.1181 1.4177 0
M  V30 83 Ga 5.1541 1.6990 0.1114 0
M  V30 84 Ba 5.5460 2.2755 -1.1916 0
M  V30 85 Ba -3.1963 -3.7959 4.8896 0
M  V30 86 Ga -1.7680 -4.1434 4.8180 0
M  V30 87 Ba -0.3381 -4.4057 4.5872 0
M  V30 88 Ba -2.9332 0.8487 -4.0872 0
M  V30 89 Ga -2.1111 -0.3232 -4.4639 0
M  V30 90 Ba -1.3121 -1.4848 -4.9146 0
M  V30 91 Ba 3.4115 2.4090 3.2038 0
M  V30 92 Ga 2.3426 3.3257 3.6600 0
M  V30 93 Ba 1.2265 4.1984 4.0886 0
M  V30 94 Ba 1.9405 0.5313 3.3840 0
M  V30 95 Ga 0.8360 1.3864 3.8512 0
M  V30 96 Ba -0.2356 2.3040 4.2738 0
M  V30 97 Ba 1.1056 -5.4645 2.7781 0
M  V30 98 Ga 0.7258 -6.2911 1.6108 0
M  V30 99 Ba 0.3318 -7.0987 0.4349 0
M  V30 END ATOM
M  V30 BEGIN BOND
M  V30 1 1 1 2
M  V30 2 1 1 3
M  V30 3 1 1 4
M  V30 4 1 1 5
M  V30 5 1 6 7
M  V30 6 1 6 8
M  V30 7 1 6 9
M  V30 8 1 6 10
M  V30 9 1 11 12
M  V30 10 1 11 13
M  V30 11 1 11 14
M  V30 12 1 11 15
M  V30 13 1 16 17
M  V30 14 1 16 18
M  V30 15 1 16 19
M  V30 16 1 16 20
M  V30 17 1 21 22
M  V30 18 1 21 23
M  V30 19 1 21 24
M  V30 20 1 21 25
M  V30 21 1 26 27
M  V30 22 1 26 28
M  V30 23 1 26 29
M  V30 24 1 26 30
M  V30 25 1 31 32
M  V30 26 1 31 33
M  V30 27 1 31 34
M  V30 28 1 31 35
M  V30 29 1 36 37
M  V30 30 1 36 38
M  V30 31 1 36 39
M  V30 32 1 36 40
M  V30 33 1 41 42
M  V30 34 1 41 43
M  V30 35 1 41 44
M  V30 36 1 41 45
M  V30 37 1 46 47
M  V30 38 1 47 48
M  V30 39 1 49 50
M  V30 40 1 50 51
M  V30 41 1 52 53
M  V30 42 1 53 54
M  V30 43 1 55 56
M  V30 44 1 56 57
M  V30 45 1 58 59
M  V30 46 1 59 60
M  V30 47 1 61 62
M  V30 48 1 62 63
M  V30 49 1 64 65
M  V30 50 1 65 66
M  V30 51 1 67 68
M  V30 52 1 68 69
M  V30 53 1 70 71
M  V30 54 1 71 72
M  V30 55 1 73 74
M  V30 56 1 74 75
M  V30 57 1 76 77
M  V30 58 1 77 78
M  V30 59 1 79 80
M  V30 60 1 80 81
M  V30 61 1 82 83
M  V30 62 1 83 84
M  V30 63 1 85 86
M  V30 64 1 86 87
M  V30 65 1 88 89
M  V30 66 1 89 90
M  V30 67 1 91 92
M  V30 68 1 92 93
M  V30 69 1 94 95
M  V30 70 1 95 96
M  V30 71 1 97 98
M  V30 72 1 98 99
M  V30 73 1 2 88
M  V30 74 1 3 70
M  V30 75 1 4 61
M  V30 76 1 5 49
M  V30 77 1 7 85
M  V30 78 1 8 79
M  V30 79 1 9 63
M  V30 80 1 10 52
M  V30 81 1 12 73
M  V30 82 1 13 81
M  V30 83 1 14 97
M  V30 84 1 15 87
M  V30 85 1 17 67
M  V30 86 1 18 46
M  V30 87 1 19 76
M  V30 88 1 20 90
M  V30 89 1 22 94
M  V30 90 1 23 82
M  V30 91 1 24 75
M  V30 92 1 25 91
M  V30 93 1 27 78
M  V30 94 1 28 69
M  V30 95 1 29 99
M  V30 96 1 30 54
M  V30 97 1 32 64
M  V30 98 1 33 55
M  V30 99 1 34 58
M  V30 100 1 35 72
M  V30 101 1 37 57
M  V30 102 1 38 93
M  V30 103 1 39 51
M  V30 104 1 40 96
M  V30 105 1 42 48
M  V30 106 1 43 60
M  V30 107 1 44 66
M  V30 108 1 45 84
M  V30 END BOND
M  V30 END CTAB
M  END

$$$$
