
     RDKit          3D

  0  0  0  0  0  0  0  0  0  0999 V3000
M  V30 BEGIN CTAB
M  V30 COUNTS 99 108 0 0 0
M  V30 BEGIN ATOM
M  V30 1 Pd 2.3927 1.2096 5.1656 0
M  V30 2 Pb 2.7131 2.0487 4.7307 0
M  V30 3 Pb 2.0764 0.3985 5.6551 0
M  V30 4 Pb 3.1685 0.6975 4.7862 0
M  V30 5 Pb 1.6046 1.7085 5.5287 0
M  V30 6 Pd -4.1219 -4.6645 0.4356 0
M  V30 7 Pb -3.4968 -4.4134 -0.3033 0
M  V30 8 Pb -3.6133 -5.5064 0.5934 0
M  V30 9 Pb -4.5953 -3.7942 0.3626 0
M  V30 10 Pb -4.6321 -4.8217 1.2957 0
M  V30 11 Pd -0.1463 3.1632 -6.0948 0
M  V30 12 Pb 0.8463 3.2886 -6.1278 0
M  V30 13 Pb -1.1296 3.0114 -5.9817 0
M  V30 14 Pb -0.0953 2.4806 -6.8243 0
M  V30 15 Pb -0.1549 3.8377 -5.3588 0
M  V30 16 Pd 1.0459 -1.7488 -5.6702 0
M  V30 17 Pb 0.9022 -1.2766 -6.5381 0
M  V30 18 Pb 1.9070 -1.2675 -5.5248 0
M  V30 19 Pb 0.1539 -2.1817 -5.7943 0
M  V30 20 Pb 1.1694 -2.1383 -4.7528 0
M  V30 21 Pd -2.8111 -0.3993 -3.1714 0
M  V30 22 Pb -2.4848 -1.2200 -2.6990 0
M  V30 23 Pb -3.1081 0.3897 -3.7136 0
M  V30 24 Pb -2.9518 -1.0055 -3.9502 0
M  V30 25 Pb -2.5914 0.2047 -2.3999 0
M  V30 26 Pd 5.0527 0.0177 0.2282 0
M  V30 27 Pb 5.0696 0.1796 -0.7564 0
M  V30 28 Pb 5.7549 0.7223 0.3373 0
M  V30 29 Pb 5.0514 -0.1664 1.2162 0
M  V30 30 Pb 4.3542 -0.6795 0.0447 0
M  V30 31 Pd 4.7039 4.9237 -1.0629 0
M  V30 32 Pb 4.5290 5.0866 -0.0961 0
M  V30 33 Pb 5.5470 4.4575 -0.7966 0
M  V30 34 Pb 3.8189 5.3148 -1.3088 0
M  V30 35 Pb 4.8195 4.7028 -2.0318 0
M  V30 36 Pd -3.0703 1.3705 4.2225 0
M  V30 37 Pb -2.6491 1.7588 3.4036 0
M  V30 38 Pb -3.4986 0.8965 4.9950 0
M  V30 39 Pb -3.7503 0.9892 3.6036 0
M  V30 40 Pb -2.3907 1.7898 4.8284 0
M  V30 41 Pd -3.1540 -3.8551 5.9041 0
M  V30 42 Pb -2.7067 -4.7142 5.6699 0
M  V30 43 Pb -2.3299 -3.5633 6.3840 0
M  V30 44 Pb -3.5960 -2.9866 6.1491 0
M  V30 45 Pb -3.9295 -4.1377 5.3159 0
M  V30 46 Ag 2.9450 2.6931 4.4297 0
M  V30 47 Fe 3.6699 3.9591 2.5601 0
M  V30 48 Ag 4.3860 5.1422 0.6338 0
M  V30 49 Ag -2.3935 0.6755 -1.8451 0
M  V30 50 Fe -2.3665 1.3571 0.4329 0
M  V30 51 Ag -2.3907 1.9671 2.7309 0
M  V30 52 Ag 2.5317 -0.9038 -5.3370 0
M  V30 53 Fe 3.8750 -0.2636 -3.4903 0
M  V30 54 Ag 5.0539 0.2585 -1.4998 0
M  V30 55 Ag -0.0732 4.3305 -4.8018 0
M  V30 56 Fe 1.4395 5.0438 -3.1190 0
M  V30 57 Ag 3.1411 5.5321 -1.5394 0
M  V30 58 Ag -3.2209 -6.0508 0.9075 0
M  V30 59 Fe -2.5463 -6.1662 3.1622 0
M  V30 60 Ag -2.4301 -5.3321 5.3638 0
M  V30 61 Ag 1.5870 3.3948 -6.0622 0
M  V30 62 Fe 3.3008 3.9528 -4.5137 0
M  V30 63 Ag 4.7987 4.5313 -2.7623 0
M  V30 64 Ag 1.3023 -2.3503 -4.0408 0
M  V30 65 Fe 2.5268 -1.8488 -2.0615 0
M  V30 66 Ag 3.8416 -1.1793 -0.1931 0
M  V30 67 Ag -4.9151 -3.1267 0.4280 0
M  V30 68 Fe -4.6951 -1.1346 1.6877 0
M  V30 69 Ag -4.2148 0.7100 3.0920 0
M  V30 70 Ag 1.8133 -0.1792 6.0526 0
M  V30 71 Fe 0.0984 -1.7782 6.4167 0
M  V30 72 Ag -1.6812 -3.3270 6.6701 0
M  V30 73 Ba -2.9588 -4.2010 -0.7815 0
M  V30 74 Ga -2.6353 -3.0205 -1.6085 0
M  V30 75 Ba -2.2265 -1.8851 -2.4603 0
M  V30 76 Ba -0.5438 -2.4351 -5.8966 0
M  V30 77 Ga -1.7999 -2.0214 -5.2506 0
M  V30 78 Ba -2.9596 -1.5016 -4.5084 0
M  V30 79 Ba -4.9978 -4.8929 1.9616 0
M  V30 80 Ga -4.7144 -4.6277 3.4031 0
M  V30 81 Ba -4.4904 -4.3824 4.8586 0
M  V30 82 Ba -0.0196 1.9576 -7.3570 0
M  V30 83 Ga 0.3640 0.5353 -7.3036 0
M  V30 84 Ba 0.7536 -0.8785 -7.1542 0
M  V30 85 Ba 3.7488 0.2978 4.5183 0
M  V30 86 Ga 4.3884 0.0166 3.2129 0
M  V30 87 Ba 5.0907 -0.3207 1.9540 0
M  V30 88 Ba 1.0099 2.0751 5.8040 0
M  V30 89 Ga -0.4422 2.0868 5.5330 0
M  V30 90 Ba -1.8986 2.1240 5.2889 0
M  V30 91 Ba -3.8345 0.5086 5.5458 0
M  V30 92 Ga -3.8641 -0.9158 5.9474 0
M  V30 93 Ba -3.9090 -2.3349 6.3662 0
M  V30 94 Ba 6.2760 1.2629 0.3514 0
M  V30 95 Ga 6.2496 2.6732 -0.0823 0
M  V30 96 Ba 6.1358 4.0724 -0.5372 0
M  V30 97 Ba -1.8601 2.8945 -5.8492 0
M  V30 98 Ga -2.6002 1.9340 -5.0044 0
M  V30 99 Ba -3.3187 0.9634 -4.1524 0
M  V30 END ATOM
M  V30 BEGIN BOND
M  V30 1 1 1 2
M  V30 2 1 1 3
M  V30 3 1 1 4
M  V30 4 1 1 5
M  V30 5 1 6 7
M  V30 6 1 6 8
M  V30 7 1 6 9
M  V30 8 1 6 10
M  V30 9 1 11 12
M  V30 10 1 11 13
M  V30 11 1 11 14
M  V30 12 1 11 15
M  V30 13 1 16 17
M  V30 14 1 16 18
M  V30 15 1 16 19
M  V30 16 1 16 20
M  V30 17 1 21 22
M  V30 18 1 21 23
M  V30 19 1 21 24
M  V30 20 1 21 25
M  V30 21 1 26 27
M  V30 22 1 26 28
M  V30 23 1 26 29
M  V30 24 1 26 30
M  V30 25 1 31 32
M  V30 26 1 31 33
M  V30 27 1 31 34
M  V30 28 1 31 35
M  V30 29 1 36 37
M  V30 30 1 36 38
M  V30 31 1 36 39
M  V30 32 1 36 40
M  V30 33 1 41 42
M  V30 34 1 41 43
M  V30 35 1 41 44
M  V30 36 1 41 45
M  V30 37 1 46 47
M  V30 38 1 47 48
M  V30 39 1 49 50
M  V30 40 1 50 51
M  V30 41 1 52 53
M  V30 42 1 53 54
M  V30 43 1 55 56
M  V30 44 1 56 57
M  V30 45 1 58 59
M  V30 46 1 59 60
M  V30 47 1 61 62
M  V30 48 1 62 63
M  V30 49 1 64 65
M  V30 50 1 65 66
M  V30 51 1 67 68
M  V30 52 1 68 69
M  V30 53 1 70 71
M  V30 54 1 71 72
M  V30 55 1 73 74
M  V30 56 1 74 75
M  V30 57 1 76 77
M  V30 58 1 77 78
M  V30 59 1 79 80
M  V30 60 1 80 81
M  V30 61 1 82 83
M  V30 62 1 83 84
M  V30 63 1 85 86
M  V30 64 1 86 87
M  V30 65 1 88 89
M  V30 66 1 89 90
M  V30 67 1 91 92
M  V30 68 1 92 93
M  V30 69 1 94 95
M  V30 70 1 95 96
M  V30 71 1 97 98
M  V30 72 1 98 99
M  V30 73 1 2 46
M  V30 74 1 3 70
M  V30 75 1 4 85
M  V30 76 1 5 88
M  V30 77 1 7 73
M  V30 78 1 8 58
M  V30 79 1 9 67
M  V30 80 1 10 79
M  V30 81 1 12 61
M  V30 82 1 13 97
M  V30 83 1 14 82
M  V30 84 1 15 55
M  V30 85 1 17 84
M  V30 86 1 18 52
M  V30 87 1 19 76
M  V30 88 1 20 64
M  V30 89 1 22 75
M  V30 90 1 23 99
M  V30 91 1 24 78
M  V30 92 1 25 49
M  V30 93 1 27 54
M  V30 94 1 28 94
M  V30 95 1 29 87
M  V30 96 1 30 66
M  V30 97 1 32 48
M  V30 98 1 33 96
M  V30 99 1 34 57
M  V30 100 1 35 63
M  V30 101 1 37 51
M  V30 102 1 38 91
M  V30 103 1 39 69
M  V30 104 1 40 90
M  V30 105 1 42 60
M  V30 106 1 43 72
M  V30 107 1 44 93
M  V30 108 1 45 81
M  V30 END BOND
M  V30 END CTAB
M  END

$$$$
