
     RDKit          3D

  0  0  0  0  0  0  0  0  0  0999 V3000
M  V30 BEGIN CTAB
M  V30 COUNTS 99 108 0 0 0
M  V30 BEGIN ATOM
M  V30 1 Pd -2.0915 0.9883 3.4007 0
M  V30 2 Pb -2.7169 0.2080 3.3843 0
M  V30 3 Pb -2.4791 1.2673 2.5251 0
M  V30 4 Pb -1.7299 0.6800 4.2824 0
M  V30 5 Pb -1.4387 1.7506 3.3955 0
M  V30 6 Pd -2.6458 6.6486 -6.1000 0
M  V30 7 Pb -2.1574 5.7965 -6.2885 0
M  V30 8 Pb -3.5257 6.1932 -6.2062 0
M  V30 9 Pb -1.7868 7.0547 -5.8126 0
M  V30 10 Pb -3.1282 7.4572 -5.7672 0
M  V30 11 Pd 1.0566 -6.0229 -1.8261 0
M  V30 12 Pb 0.8554 -6.7850 -1.2125 0
M  V30 13 Pb 1.2345 -5.2847 -2.4790 0
M  V30 14 Pb 2.0350 -6.1564 -1.6531 0
M  V30 15 Pb 0.0713 -5.8957 -1.9574 0
M  V30 16 Pd 5.4253 -4.0671 1.3676 0
M  V30 17 Pb 5.1120 -4.7816 0.7351 0
M  V30 18 Pb 5.8063 -3.3686 1.9609 0
M  V30 19 Pb 5.6085 -3.4579 0.5996 0
M  V30 20 Pb 5.1845 -4.6152 2.1930 0
M  V30 21 Pd 2.4662 1.3466 -3.3204 0
M  V30 22 Pb 1.7758 1.8173 -3.8771 0
M  V30 23 Pb 2.2547 0.4927 -3.7934 0
M  V30 24 Pb 3.2168 0.8551 -2.8810 0
M  V30 25 Pb 2.6855 2.1517 -2.7625 0
M  V30 26 Pd 2.5466 -3.8912 6.4663 0
M  V30 27 Pb 3.2760 -3.2255 6.5689 0
M  V30 28 Pb 1.8020 -4.5493 6.3716 0
M  V30 29 Pb 1.9083 -3.2336 6.8624 0
M  V30 30 Pb 3.1600 -4.4802 5.9054 0
M  V30 31 Pd -2.6168 -6.3652 1.6878 0
M  V30 32 Pb -3.1778 -5.5874 1.9693 0
M  V30 33 Pb -2.3731 -6.5264 2.6408 0
M  V30 34 Pb -2.7757 -6.1661 0.7206 0
M  V30 35 Pb -1.9997 -7.1011 1.4183 0
M  V30 36 Pd 0.3461 5.2818 0.2615 0
M  V30 37 Pb 1.2074 4.8536 -0.0201 0
M  V30 38 Pb -0.5116 5.7465 0.5004 0
M  V30 39 Pb 0.4332 5.8439 -0.5570 0
M  V30 40 Pb 0.3140 4.7645 1.1221 0
M  V30 41 Pd -4.6370 6.0570 -1.9959 0
M  V30 42 Pb -5.0874 5.7231 -2.8268 0
M  V30 43 Pb -4.5543 5.1241 -1.6559 0
M  V30 44 Pb -4.1584 6.3788 -1.1748 0
M  V30 45 Pb -4.6765 6.9785 -2.3832 0
M  V30 46 Ag -1.7781 5.1518 -6.3511 0
M  V30 47 Fe -0.2366 3.6515 -5.3365 0
M  V30 48 Ag 1.2955 2.1010 -4.3853 0
M  V30 49 Ag -3.1721 -0.3864 3.3362 0
M  V30 50 Fe -3.4231 -2.6826 2.7846 0
M  V30 51 Ag -3.5517 -4.9821 2.2054 0
M  V30 52 Ag 5.7189 -2.9422 0.0699 0
M  V30 53 Fe 4.7647 -1.2434 -1.2853 0
M  V30 54 Ag 3.8003 0.4559 -2.6325 0
M  V30 55 Ag 6.0273 -2.8882 2.4775 0
M  V30 56 Fe 5.2722 -2.4342 4.6578 0
M  V30 57 Ag 3.8457 -2.7613 6.4977 0
M  V30 58 Ag -1.1820 7.2857 -5.4503 0
M  V30 59 Fe -0.1929 6.8753 -3.3385 0
M  V30 60 Ag 0.5364 6.2551 -1.1721 0
M  V30 61 Ag -1.4686 0.4220 4.9381 0
M  V30 62 Fe -0.0551 -1.1030 6.0863 0
M  V30 63 Ag 1.4190 -2.6981 7.0477 0
M  V30 64 Ag -2.8119 1.4282 1.8754 0
M  V30 65 Fe -3.6285 2.9428 0.2433 0
M  V30 66 Ag -4.4570 4.4254 -1.4120 0
M  V30 67 Ag 1.2270 -5.0213 6.2923 0
M  V30 68 Fe -0.4800 -5.8738 4.8833 0
M  V30 69 Ag -2.1221 -6.6110 3.3389 0
M  V30 70 Ag 1.3304 -4.7419 -2.9899 0
M  V30 71 Fe 1.7230 -2.4722 -3.5710 0
M  V30 72 Ag 2.1220 -0.1865 -4.0803 0
M  V30 73 Ba 2.9111 2.6902 -2.2849 0
M  V30 74 Ga 2.3438 3.6329 -1.2957 0
M  V30 75 Ba 1.8655 4.6047 -0.2874 0
M  V30 76 Ba -0.6732 -5.8116 -2.0225 0
M  V30 77 Ga -1.7788 -5.9053 -1.0478 0
M  V30 78 Ba -2.8265 -6.0163 -0.0129 0
M  V30 79 Ba -3.4926 8.0079 -5.4145 0
M  V30 80 Ga -4.1210 7.9196 -4.0842 0
M  V30 81 Ba -4.6854 7.6308 -2.7536 0
M  V30 82 Ba -4.1889 5.8573 -6.1387 0
M  V30 83 Ga -4.8711 5.6298 -4.8523 0
M  V30 84 Ba -5.3880 5.4970 -3.4782 0
M  V30 85 Ba 0.6698 -7.3576 -0.7671 0
M  V30 86 Ga -0.4003 -7.5296 0.2291 0
M  V30 87 Ba -1.4971 -7.6124 1.2073 0
M  V30 88 Ba 5.0258 -5.0206 2.8277 0
M  V30 89 Ga 4.2935 -4.9126 4.1313 0
M  V30 90 Ba 3.6020 -4.9261 5.4613 0
M  V30 91 Ba 2.7584 -6.2984 -1.5017 0
M  V30 92 Ga 3.8210 -5.7696 -0.6185 0
M  V30 93 Ba 4.9460 -5.3146 0.2277 0
M  V30 94 Ba -0.9229 2.2990 3.4245 0
M  V30 95 Ga -0.3398 3.3488 2.5594 0
M  V30 96 Ba 0.3227 4.4319 1.7993 0
M  V30 97 Ba -1.1443 6.1190 0.6732 0
M  V30 98 Ga -2.4672 6.3470 0.0492 0
M  V30 99 Ba -3.7987 6.5938 -0.5487 0
M  V30 END ATOM
M  V30 BEGIN BOND
M  V30 1 1 1 2
M  V30 2 1 1 3
M  V30 3 1 1 4
M  V30 4 1 1 5
M  V30 5 1 6 7
M  V30 6 1 6 8
M  V30 7 1 6 9
M  V30 8 1 6 10
M  V30 9 1 11 12
M  V30 10 1 11 13
M  V30 11 1 11 14
M  V30 12 1 11 15
M  V30 13 1 16 17
M  V30 14 1 16 18
M  V30 15 1 16 19
M  V30 16 1 16 20
M  V30 17 1 21 22
M  V30 18 1 21 23
M  V30 19 1 21 24
M  V30 20 1 21 25
M  V30 21 1 26 27
M  V30 22 1 26 28
M  V30 23 1 26 29
M  V30 24 1 26 30
M  V30 25 1 31 32
M  V30 26 1 31 33
M  V30 27 1 31 34
M  V30 28 1 31 35
M  V30 29 1 36 37
M  V30 30 1 36 38
M  V30 31 1 36 39
M  V30 32 1 36 40
M  V30 33 1 41 42
M  V30 34 1 41 43
M  V30 35 1 41 44
M  V30 36 1 41 45
M  V30 37 1 46 47
M  V30 38 1 47 48
M  V30 39 1 49 50
M  V30 40 1 50 51
M  V30 41 1 52 53
M  V30 42 1 53 54
M  V30 43 1 55 56
M  V30 44 1 56 57
M  V30 45 1 58 59
M  V30 46 1 59 60
M  V30 47 1 61 62
M  V30 48 1 62 63
M  V30 49 1 64 65
M  V30 50 1 65 66
M  V30 51 1 67 68
M  V30 52 1 68 69
M  V30 53 1 70 71
M  V30 54 1 71 72
M  V30 55 1 73 74
M  V30 56 1 74 75
M  V30 57 1 76 77
M  V30 58 1 77 78
M  V30 59 1 79 80
M  V30 60 1 80 81
M  V30 61 1 82 83
M  V30 62 1 83 84
M  V30 63 1 85 86
M  V30 64 1 86 87
M  V30 65 1 88 89
M  V30 66 1 89 90
M  V30 67 1 91 92
M  V30 68 1 92 93
M  V30 69 1 94 95
M  V30 70 1 95 96
M  V30 71 1 97 98
M  V30 72 1 98 99
M  V30 73 1 2 49
M  V30 74 1 3 64
M  V30 75 1 4 61
M  V30 76 1 5 94
M  V30 77 1 7 46
M  V30 78 1 8 82
M  V30 79 1 9 58
M  V30 80 1 10 79
M  V30 81 1 12 85
M  V30 82 1 13 70
M  V30 83 1 14 91
M  V30 84 1 15 76
M  V30 85 1 17 93
M  V30 86 1 18 55
M  V30 87 1 19 52
M  V30 88 1 20 88
M  V30 89 1 22 48
M  V30 90 1 23 72
M  V30 91 1 24 54
M  V30 92 1 25 73
M  V30 93 1 27 57
M  V30 94 1 28 67
M  V30 95 1 29 63
M  V30 96 1 30 90
M  V30 97 1 32 51
M  V30 98 1 33 69
M  V30 99 1 34 78
M  V30 100 1 35 87
M  V30 101 1 37 75
M  V30 102 1 38 97
M  V30 103 1 39 60
M  V30 104 1 40 96
M  V30 105 1 42 84
M  V30 106 1 43 66
M  V30 107 1 44 99
M  V30 108 1 45 81
M  V30 END BOND
M  V30 END CTAB
M  END

$$$$
