
     RDKit          3D

  0  0  0  0  0  0  0  0  0  0999 V3000
M  V30 BEGIN CTAB
M  V30 COUNTS 99 108 0 0 0
M  V30 BEGIN ATOM
M  V30 1 Pd 3.7558 -0.6210 -0.4794 0
M  V30 2 Pb 4.6228 -0.1316 -0.5897 0
M  V30 3 Pb 3.2928 0.2280 -0.7389 0
M  V30 4 Pb 4.2193 -1.4855 -0.2707 0
M  V30 5 Pb 2.8796 -1.0754 -0.3085 0
M  V30 6 Pd -2.3327 0.5743 -6.8422 0
M  V30 7 Pb -3.0999 0.8537 -6.2695 0
M  V30 8 Pb -1.9328 1.4938 -6.7780 0
M  V30 9 Pb -2.7074 -0.3573 -6.8677 0
M  V30 10 Pb -1.5449 0.3055 -7.3937 0
M  V30 11 Pd -1.3160 3.9404 4.4664 0
M  V30 12 Pb -0.4958 3.8508 5.0305 0
M  V30 13 Pb -2.1155 4.0114 3.8745 0
M  V30 14 Pb -1.9017 3.4928 5.1452 0
M  V30 15 Pb -0.7196 4.3378 3.7661 0
M  V30 16 Pd -2.9203 -1.0855 4.8853 0
M  V30 17 Pb -3.2027 -0.2653 5.3869 0
M  V30 18 Pb -2.5713 -1.8810 4.3860 0
M  V30 19 Pb -3.8098 -1.1566 4.4271 0
M  V30 20 Pb -2.0513 -1.0803 5.3764 0
M  V30 21 Pd -5.8148 -0.1888 -0.0095 0
M  V30 22 Pb -5.7766 0.2251 -0.9170 0
M  V30 23 Pb -5.6791 0.7132 0.3950 0
M  V30 24 Pb -5.8878 -0.5864 0.9075 0
M  V30 25 Pb -5.9284 -1.0871 -0.4370 0
M  V30 26 Pd 3.7689 -3.6434 3.7272 0
M  V30 27 Pb 2.8646 -3.9767 3.4542 0
M  V30 28 Pb 4.6338 -3.2176 3.9821 0
M  V30 29 Pb 4.1756 -3.8924 2.8503 0
M  V30 30 Pb 3.3348 -3.2746 4.5454 0
M  V30 31 Pd 5.5828 2.9569 2.6525 0
M  V30 32 Pb 5.9659 2.7059 1.7617 0
M  V30 33 Pb 6.1609 2.2645 3.0768 0
M  V30 34 Pb 4.9091 3.5754 2.2473 0
M  V30 35 Pb 5.1328 3.1280 3.5289 0
M  V30 36 Pd -2.6810 -3.3291 -3.1936 0
M  V30 37 Pb -3.6179 -3.3579 -2.8384 0
M  V30 38 Pb -1.7317 -3.3208 -3.5019 0
M  V30 39 Pb -3.0120 -3.2838 -4.1394 0
M  V30 40 Pb -2.2979 -3.2878 -2.2737 0
M  V30 41 Pd 2.0848 1.4268 -5.2184 0
M  V30 42 Pb 1.6008 2.2504 -5.5072 0
M  V30 43 Pb 2.1463 1.7622 -4.2758 0
M  V30 44 Pb 2.3703 0.5170 -4.9382 0
M  V30 45 Pb 1.9590 1.0603 -6.1386 0
M  V30 46 Ag -3.6648 1.0491 -5.8212 0
M  V30 47 Fe -4.7289 0.8098 -3.7144 0
M  V30 48 Ag -5.7603 0.5407 -1.5951 0
M  V30 49 Ag -2.2235 -2.4524 4.0420 0
M  V30 50 Fe -0.0891 -3.4008 3.5969 0
M  V30 51 Ag 2.1492 -4.1430 3.2931 0
M  V30 52 Ag -0.2150 4.5909 3.2693 0
M  V30 53 Fe 2.0389 4.3929 2.5415 0
M  V30 54 Ag 4.3244 3.9917 2.0281 0
M  V30 55 Ag 0.1731 3.8000 5.3647 0
M  V30 56 Fe 2.4857 3.5235 4.9019 0
M  V30 57 Ag 4.7172 3.2312 4.1445 0
M  V30 58 Ag -1.3935 -1.1523 5.7255 0
M  V30 59 Fe 0.8116 -2.0062 5.5412 0
M  V30 60 Ag 2.9438 -2.9402 5.0869 0
M  V30 61 Ag 2.2291 -1.4176 -0.1498 0
M  V30 62 Fe 0.1411 -2.3289 -0.8219 0
M  V30 63 Ag -1.9115 -3.1998 -1.6395 0
M  V30 64 Ag -0.9991 -3.2864 -3.6510 0
M  V30 65 Fe 0.8365 -1.8903 -4.1983 0
M  V30 66 Ag 2.4026 -0.2071 -4.7717 0
M  V30 67 Ag 5.2439 -2.8119 4.1254 0
M  V30 68 Fe 6.0715 -0.6086 3.8488 0
M  V30 69 Ag 6.5007 1.6749 3.3829 0
M  V30 70 Ag -2.7236 4.0195 3.4404 0
M  V30 71 Fe -4.1737 2.7556 2.0527 0
M  V30 72 Ag -5.5505 1.3892 0.6877 0
M  V30 73 Ba 5.2401 0.2936 -0.6482 0
M  V30 74 Ga 5.7709 1.3780 0.2043 0
M  V30 75 Ba 6.2368 2.4500 1.1087 0
M  V30 76 Ba -6.0085 -1.7483 -0.7847 0
M  V30 77 Ga -5.1563 -2.5698 -1.6691 0
M  V30 78 Ba -4.3137 -3.4000 -2.5547 0
M  V30 79 Ba -4.4895 -1.2594 4.1195 0
M  V30 80 Ga -5.1928 -1.0416 2.8377 0
M  V30 81 Ba -5.9809 -0.8659 1.5994 0
M  V30 82 Ba -0.9139 0.1567 -7.7670 0
M  V30 83 Ga 0.4744 0.4269 -7.3593 0
M  V30 84 Ba 1.7963 0.7606 -6.8046 0
M  V30 85 Ba -1.5927 2.1650 -6.7194 0
M  V30 86 Ga -0.2448 2.5474 -6.2476 0
M  V30 87 Ba 1.1276 2.7778 -5.7494 0
M  V30 88 Ba -2.3743 3.1411 5.6133 0
M  V30 89 Ga -2.8767 1.7539 5.7075 0
M  V30 90 Ba -3.3604 0.3586 5.7763 0
M  V30 91 Ba -2.9968 -1.0542 -6.8663 0
M  V30 92 Ga -3.1178 -2.1388 -5.8658 0
M  V30 93 Ba -3.2325 -3.2159 -4.8564 0
M  V30 94 Ba 4.5321 -2.1567 -0.1342 0
M  V30 95 Ga 4.5295 -3.0948 1.0058 0
M  V30 96 Ba 4.4926 -3.9901 2.1791 0
M  V30 97 Ba 2.9787 0.8744 -0.9578 0
M  V30 98 Ga 2.5681 1.4372 -2.2610 0
M  V30 99 Ba 2.1569 2.0026 -3.5629 0
M  V30 END ATOM
M  V30 BEGIN BOND
M  V30 1 1 1 2
M  V30 2 1 1 3
M  V30 3 1 1 4
M  V30 4 1 1 5
M  V30 5 1 6 7
M  V30 6 1 6 8
M  V30 7 1 6 9
M  V30 8 1 6 10
M  V30 9 1 11 12
M  V30 10 1 11 13
M  V30 11 1 11 14
M  V30 12 1 11 15
M  V30 13 1 16 17
M  V30 14 1 16 18
M  V30 15 1 16 19
M  V30 16 1 16 20
M  V30 17 1 21 22
M  V30 18 1 21 23
M  V30 19 1 21 24
M  V30 20 1 21 25
M  V30 21 1 26 27
M  V30 22 1 26 28
M  V30 23 1 26 29
M  V30 24 1 26 30
M  V30 25 1 31 32
M  V30 26 1 31 33
M  V30 27 1 31 34
M  V30 28 1 31 35
M  V30 29 1 36 37
M  V30 30 1 36 38
M  V30 31 1 36 39
M  V30 32 1 36 40
M  V30 33 1 41 42
M  V30 34 1 41 43
M  V30 35 1 41 44
M  V30 36 1 41 45
M  V30 37 1 46 47
M  V30 38 1 47 48
M  V30 39 1 49 50
M  V30 40 1 50 51
M  V30 41 1 52 53
M  V30 42 1 53 54
M  V30 43 1 55 56
M  V30 44 1 56 57
M  V30 45 1 58 59
M  V30 46 1 59 60
M  V30 47 1 61 62
M  V30 48 1 62 63
M  V30 49 1 64 65
M  V30 50 1 65 66
M  V30 51 1 67 68
M  V30 52 1 68 69
M  V30 53 1 70 71
M  V30 54 1 71 72
M  V30 55 1 73 74
M  V30 56 1 74 75
M  V30 57 1 76 77
M  V30 58 1 77 78
M  V30 59 1 79 80
M  V30 60 1 80 81
M  V30 61 1 82 83
M  V30 62 1 83 84
M  V30 63 1 85 86
M  V30 64 1 86 87
M  V30 65 1 88 89
M  V30 66 1 89 90
M  V30 67 1 91 92
M  V30 68 1 92 93
M  V30 69 1 94 95
M  V30 70 1 95 96
M  V30 71 1 97 98
M  V30 72 1 98 99
M  V30 73 1 2 73
M  V30 74 1 3 97
M  V30 75 1 4 94
M  V30 76 1 5 61
M  V30 77 1 7 46
M  V30 78 1 8 85
M  V30 79 1 9 91
M  V30 80 1 10 82
M  V30 81 1 12 55
M  V30 82 1 13 70
M  V30 83 1 14 88
M  V30 84 1 15 52
M  V30 85 1 17 90
M  V30 86 1 18 49
M  V30 87 1 19 79
M  V30 88 1 20 58
M  V30 89 1 22 48
M  V30 90 1 23 72
M  V30 91 1 24 81
M  V30 92 1 25 76
M  V30 93 1 27 51
M  V30 94 1 28 67
M  V30 95 1 29 96
M  V30 96 1 30 60
M  V30 97 1 32 75
M  V30 98 1 33 69
M  V30 99 1 34 54
M  V30 100 1 35 57
M  V30 101 1 37 78
M  V30 102 1 38 64
M  V30 103 1 39 93
M  V30 104 1 40 63
M  V30 105 1 42 87
M  V30 106 1 43 99
M  V30 107 1 44 66
M  V30 108 1 45 84
M  V30 END BOND
M  V30 END CTAB
M  END

$$$$
