
     RDKit          3D

  0  0  0  0  0  0  0  0  0  0999 V3000
M  V30 BEGIN CTAB
M  V30 COUNTS 99 108 0 0 0
M  V30 BEGIN ATOM
M  V30 1 Pd 2.4459 3.6319 2.7370 0
M  V30 2 Pb 1.5383 3.8503 3.1084 0
M  V30 3 Pb 2.5929 3.0137 3.5132 0
M  V30 4 Pb 2.3078 4.2849 1.9970 0
M  V30 5 Pb 3.3592 3.4690 2.3538 0
M  V30 6 Pd 2.6169 -5.6776 3.2376 0
M  V30 7 Pb 1.9150 -5.1839 2.7249 0
M  V30 8 Pb 3.3598 -6.0813 3.7685 0
M  V30 9 Pb 3.1920 -5.6530 2.4226 0
M  V30 10 Pb 2.0964 -5.5886 4.0877 0
M  V30 11 Pd -6.6562 -1.9422 -0.9570 0
M  V30 12 Pb -6.2064 -1.7894 -0.0749 0
M  V30 13 Pb -6.2204 -2.8303 -1.0792 0
M  V30 14 Pb -6.9768 -2.0341 -1.8973 0
M  V30 15 Pb -6.9665 -0.9953 -0.9085 0
M  V30 16 Pd -3.2319 0.0422 -6.8068 0
M  V30 17 Pb -4.0399 -0.5335 -6.6912 0
M  V30 18 Pb -2.4490 0.6616 -6.8438 0
M  V30 19 Pb -2.6453 -0.7499 -6.9875 0
M  V30 20 Pb -3.7844 0.8378 -6.5572 0
M  V30 21 Pd -0.2223 -3.0269 -3.5745 0
M  V30 22 Pb -0.1306 -3.0503 -2.5783 0
M  V30 23 Pb -0.9872 -3.6560 -3.4493 0
M  V30 24 Pb -0.3702 -2.9998 -4.5663 0
M  V30 25 Pb 0.5263 -2.3648 -3.6465 0
M  V30 26 Pd -1.9182 5.9766 -2.9648 0
M  V30 27 Pb -1.4381 5.5190 -3.7136 0
M  V30 28 Pb -2.3868 6.3760 -2.1753 0
M  V30 29 Pb -1.0548 6.2140 -2.5313 0
M  V30 30 Pb -2.7682 5.6704 -3.3911 0
M  V30 31 Pd -3.3365 3.8888 1.7576 0
M  V30 32 Pb -2.5636 4.0617 2.3770 0
M  V30 33 Pb -3.3035 4.8237 1.3974 0
M  V30 34 Pb -4.1444 3.7098 1.1968 0
M  V30 35 Pb -3.4249 2.9438 2.0802 0
M  V30 36 Pd 5.7783 -0.0763 0.0125 0
M  V30 37 Pb 5.2270 0.0514 -0.8131 0
M  V30 38 Pb 6.2979 -0.2347 0.8509 0
M  V30 39 Pb 5.7600 -1.0608 -0.1567 0
M  V30 40 Pb 5.7608 0.8975 0.2410 0
M  V30 41 Pd 4.4778 -2.9438 6.5238 0
M  V30 42 Pb 4.8602 -3.8601 6.4097 0
M  V30 43 Pb 4.0801 -2.0268 6.5727 0
M  V30 44 Pb 5.3116 -2.5344 6.1610 0
M  V30 45 Pb 3.6037 -3.3706 6.7577 0
M  V30 46 Ag 1.4324 -4.7647 2.3330 0
M  V30 47 Fe 0.6626 -3.9431 0.2412 0
M  V30 48 Ag -0.1374 -3.0954 -1.8287 0
M  V30 49 Ag 1.0769 -1.8529 -3.6651 0
M  V30 50 Fe 2.9439 -0.8498 -2.5891 0
M  V30 51 Ag 4.7971 0.0817 -1.4283 0
M  V30 52 Ag -1.9222 1.1920 -6.7974 0
M  V30 53 Fe -1.3913 3.1775 -5.6085 0
M  V30 54 Ag -1.1259 5.1170 -4.2647 0
M  V30 55 Ag -7.0766 -0.2572 -0.8612 0
M  V30 56 Fe -6.0293 1.7182 -0.0655 0
M  V30 57 Ag -4.7657 3.5203 0.8227 0
M  V30 58 Ag -5.8216 -1.5825 0.5375 0
M  V30 59 Fe -4.6609 0.2509 1.5108 0
M  V30 60 Ag -3.5691 2.2270 2.2589 0
M  V30 61 Ag -4.1424 1.4529 -6.3202 0
M  V30 62 Fe -3.8891 3.4500 -5.0612 0
M  V30 63 Ag -3.3413 5.3577 -3.7580 0
M  V30 64 Ag -7.0849 -2.0994 -2.6342 0
M  V30 65 Fe -6.0096 -1.5791 -4.6841 0
M  V30 66 Ag -4.6683 -0.9031 -6.5208 0
M  V30 67 Ag 3.6331 -5.5266 1.8325 0
M  V30 68 Fe 4.7308 -3.7605 0.6900 0
M  V30 69 Ag 5.7023 -1.8033 -0.2347 0
M  V30 70 Ag 2.2219 4.7798 1.4445 0
M  V30 71 Fe 0.9472 5.6113 -0.3719 0
M  V30 72 Ag -0.4205 6.3436 -2.1633 0
M  V30 73 Ag 6.6452 -0.3691 1.5006 0
M  V30 74 Fe 6.4029 -1.2617 3.6852 0
M  V30 75 Ag 5.8780 -2.2155 5.7929 0
M  V30 76 Ag 2.6612 2.5893 4.1316 0
M  V30 77 Fe 3.2397 0.6181 5.3281 0
M  V30 78 Ag 3.8023 -1.3292 6.5707 0
M  V30 79 Ag -5.8220 -3.4283 -1.2826 0
M  V30 80 Fe -3.7296 -3.9462 -2.2713 0
M  V30 81 Ag -1.5753 -4.0754 -3.2549 0
M  V30 82 Ba 0.8789 4.0432 3.4201 0
M  V30 83 Ga -0.5642 4.0939 3.0909 0
M  V30 84 Ba -2.0282 4.1966 2.8923 0
M  V30 85 Ba -2.1846 -1.3345 -7.0965 0
M  V30 86 Ga -1.3420 -2.1612 -6.2056 0
M  V30 87 Ba -0.5020 -2.9830 -5.3077 0
M  V30 88 Ba 1.7797 -5.4613 4.7566 0
M  V30 89 Ga 2.2923 -4.6161 5.8532 0
M  V30 90 Ba 2.9521 -3.7346 6.8366 0
M  V30 91 Ba 3.9224 -6.2979 4.2112 0
M  V30 92 Ga 4.5713 -5.5010 5.2656 0
M  V30 93 Ba 5.0921 -4.5586 6.2698 0
M  V30 94 Ba 4.0353 3.4340 2.0218 0
M  V30 95 Ga 4.8750 2.4940 1.2495 0
M  V30 96 Ba 5.7711 1.6117 0.4724 0
M  V30 97 Ba -2.6853 6.6615 -1.5475 0
M  V30 98 Ga -3.0104 6.0952 -0.2214 0
M  V30 99 Ba -3.3300 5.5144 1.0996 0
M  V30 END ATOM
M  V30 BEGIN BOND
M  V30 1 1 1 2
M  V30 2 1 1 3
M  V30 3 1 1 4
M  V30 4 1 1 5
M  V30 5 1 6 7
M  V30 6 1 6 8
M  V30 7 1 6 9
M  V30 8 1 6 10
M  V30 9 1 11 12
M  V30 10 1 11 13
M  V30 11 1 11 14
M  V30 12 1 11 15
M  V30 13 1 16 17
M  V30 14 1 16 18
M  V30 15 1 16 19
M  V30 16 1 16 20
M  V30 17 1 21 22
M  V30 18 1 21 23
M  V30 19 1 21 24
M  V30 20 1 21 25
M  V30 21 1 26 27
M  V30 22 1 26 28
M  V30 23 1 26 29
M  V30 24 1 26 30
M  V30 25 1 31 32
M  V30 26 1 31 33
M  V30 27 1 31 34
M  V30 28 1 31 35
M  V30 29 1 36 37
M  V30 30 1 36 38
M  V30 31 1 36 39
M  V30 32 1 36 40
M  V30 33 1 41 42
M  V30 34 1 41 43
M  V30 35 1 41 44
M  V30 36 1 41 45
M  V30 37 1 46 47
M  V30 38 1 47 48
M  V30 39 1 49 50
M  V30 40 1 50 51
M  V30 41 1 52 53
M  V30 42 1 53 54
M  V30 43 1 55 56
M  V30 44 1 56 57
M  V30 45 1 58 59
M  V30 46 1 59 60
M  V30 47 1 61 62
M  V30 48 1 62 63
M  V30 49 1 64 65
M  V30 50 1 65 66
M  V30 51 1 67 68
M  V30 52 1 68 69
M  V30 53 1 70 71
M  V30 54 1 71 72
M  V30 55 1 73 74
M  V30 56 1 74 75
M  V30 57 1 76 77
M  V30 58 1 77 78
M  V30 59 1 79 80
M  V30 60 1 80 81
M  V30 61 1 82 83
M  V30 62 1 83 84
M  V30 63 1 85 86
M  V30 64 1 86 87
M  V30 65 1 88 89
M  V30 66 1 89 90
M  V30 67 1 91 92
M  V30 68 1 92 93
M  V30 69 1 94 95
M  V30 70 1 95 96
M  V30 71 1 97 98
M  V30 72 1 98 99
M  V30 73 1 2 82
M  V30 74 1 3 76
M  V30 75 1 4 70
M  V30 76 1 5 94
M  V30 77 1 7 46
M  V30 78 1 8 91
M  V30 79 1 9 67
M  V30 80 1 10 88
M  V30 81 1 12 58
M  V30 82 1 13 79
M  V30 83 1 14 64
M  V30 84 1 15 55
M  V30 85 1 17 66
M  V30 86 1 18 52
M  V30 87 1 19 85
M  V30 88 1 20 61
M  V30 89 1 22 48
M  V30 90 1 23 81
M  V30 91 1 24 87
M  V30 92 1 25 49
M  V30 93 1 27 54
M  V30 94 1 28 97
M  V30 95 1 29 72
M  V30 96 1 30 63
M  V30 97 1 32 84
M  V30 98 1 33 99
M  V30 99 1 34 57
M  V30 100 1 35 60
M  V30 101 1 37 51
M  V30 102 1 38 73
M  V30 103 1 39 69
M  V30 104 1 40 96
M  V30 105 1 42 93
M  V30 106 1 43 78
M  V30 107 1 44 75
M  V30 108 1 45 90
M  V30 END BOND
M  V30 END CTAB
M  END

$$$$
