
     RDKit          3D

  0  0  0  0  0  0  0  0  0  0999 V3000
M  V30 BEGIN CTAB
M  V30 COUNTS 99 108 0 0 0
M  V30 BEGIN ATOM
M  V30 1 Pd -0.6895 -6.3523 7.8367 0
M  V30 2 Pb -1.0659 -5.4359 8.0571 0
M  V30 3 Pb -1.5234 -6.5980 7.3449 0
M  V30 4 Pb 0.1700 -6.1017 8.2677 0
M  V30 5 Pb -0.2575 -7.1706 7.4632 0
M  V30 6 Pd -1.3131 5.8656 -6.3563 0
M  V30 7 Pb -2.0227 5.4966 -6.9465 0
M  V30 8 Pb -0.6059 5.5065 -6.9959 0
M  V30 9 Pb -2.0035 6.1562 -5.6893 0
M  V30 10 Pb -0.6039 6.2359 -5.7615 0
M  V30 11 Pd 3.0540 0.1892 1.4365 0
M  V30 12 Pb 3.4231 0.1182 0.5063 0
M  V30 13 Pb 3.0300 1.1789 1.3384 0
M  V30 14 Pb 2.7223 0.3585 2.3677 0
M  V30 15 Pb 3.0724 -0.8076 1.5394 0
M  V30 16 Pd -1.1225 5.9367 -1.1282 0
M  V30 17 Pb -0.5057 6.2948 -1.8271 0
M  V30 18 Pb -1.7197 5.5773 -0.4044 0
M  V30 19 Pb -0.3234 5.7128 -0.5795 0
M  V30 20 Pb -1.8979 6.1593 -1.7222 0
M  V30 21 Pd -0.0771 -0.7169 6.4048 0
M  V30 22 Pb 0.4826 -0.0813 5.8755 0
M  V30 23 Pb 0.7558 -1.0623 6.8221 0
M  V30 24 Pb -0.9202 -0.3077 6.0463 0
M  V30 25 Pb -0.6115 -1.3937 6.9466 0
M  V30 26 Pd -2.5807 1.1046 1.6719 0
M  V30 27 Pb -2.4176 1.0543 0.6913 0
M  V30 28 Pb -2.5579 0.1054 1.6545 0
M  V30 29 Pb -2.7447 1.0959 2.6596 0
M  V30 30 Pb -2.6794 2.1054 1.6450 0
M  V30 31 Pd 2.1575 -0.8068 -4.3038 0
M  V30 32 Pb 2.7504 -0.4602 -3.5726 0
M  V30 33 Pb 1.6207 -1.2362 -5.0304 0
M  V30 34 Pb 2.9116 -0.7325 -4.9534 0
M  V30 35 Pb 1.3302 -0.6752 -3.7629 0
M  V30 36 Pd -0.5026 -6.4108 3.1588 0
M  V30 37 Pb -0.0228 -7.1127 3.6885 0
M  V30 38 Pb 0.3545 -6.0381 2.8024 0
M  V30 39 Pb -1.0063 -5.7036 2.6661 0
M  V30 40 Pb -1.3540 -6.7140 3.5832 0
M  V30 41 Pd 1.0553 1.0622 -8.6912 0
M  V30 42 Pb 0.8785 0.0940 -8.5444 0
M  V30 43 Pb 0.1392 1.1690 -9.0619 0
M  V30 44 Pb 1.9790 0.9140 -8.3247 0
M  V30 45 Pb 1.1546 2.0728 -8.6987 0
M  V30 46 Ag 0.7968 -5.7747 8.4831 0
M  V30 47 Fe 1.5275 -3.5782 8.0597 0
M  V30 48 Ag 1.3050 -1.4058 7.1808 0
M  V30 49 Ag -2.2932 0.9165 -0.0312 0
M  V30 50 Fe -0.7748 0.2261 -1.7177 0
M  V30 51 Ag 0.6788 -0.4656 -3.4599 0
M  V30 52 Ag 3.0942 -1.5582 1.5856 0
M  V30 53 Fe 2.0593 -3.6429 2.0673 0
M  V30 54 Ag 0.9816 -5.7023 2.5632 0
M  V30 55 Ag 2.9711 1.9201 1.2962 0
M  V30 56 Fe 1.6805 3.7687 0.5697 0
M  V30 57 Ag 0.2961 5.5247 -0.2114 0
M  V30 58 Ag -2.4401 5.1114 -7.4205 0
M  V30 59 Fe -1.9351 3.1446 -8.6114 0
M  V30 60 Ag -0.5504 1.3537 -9.2581 0
M  V30 61 Ag -2.5814 -0.6384 1.5629 0
M  V30 62 Fe -1.9494 -2.8882 1.9812 0
M  V30 63 Ag -1.4002 -5.1738 2.3140 0
M  V30 64 Ba -2.0987 -6.7945 6.9083 0
M  V30 65 Ga -2.1240 -6.8791 5.4390 0
M  V30 66 Ba -1.9622 -6.9028 3.9760 0
M  V30 67 Ba -1.5578 0.0303 5.8295 0
M  V30 68 Ga -2.1922 0.5356 4.5937 0
M  V30 69 Ba -2.8827 1.0618 3.3973 0
M  V30 70 Ba 1.2729 -1.5781 -5.6008 0
M  V30 71 Ga 0.9731 -1.1545 -6.9779 0
M  V30 72 Ba 0.7296 -0.6002 -8.3189 0
M  V30 73 Ba -0.0951 6.5124 -5.2899 0
M  V30 74 Ga -0.0398 6.5481 -3.8199 0
M  V30 75 Ba -0.0359 6.5558 -2.3483 0
M  V30 76 Ba -2.1462 5.3330 0.1685 0
M  V30 77 Ga -2.4476 4.0628 0.8697 0
M  V30 78 Ba -2.8139 2.8493 1.6372 0
M  V30 79 Ba -2.5104 6.3459 -5.1655 0
M  V30 80 Ga -2.4990 6.3494 -3.6866 0
M  V30 81 Ba -2.4429 6.3376 -2.2088 0
M  V30 82 Ba 3.7444 0.1426 -0.1746 0
M  V30 83 Ga 3.4313 -0.0723 -1.6041 0
M  V30 84 Ba 3.2623 -0.2458 -3.0633 0
M  V30 85 Ba 3.3964 -0.5687 -5.5005 0
M  V30 86 Ga 3.0893 0.0796 -6.7935 0
M  V30 87 Ba 2.6576 0.7301 -8.0495 0
M  V30 88 Ba -0.0594 5.2609 -7.4773 0
M  V30 89 Ga 0.5314 4.0119 -8.0525 0
M  V30 90 Ba 1.2031 2.8373 -8.6922 0
M  V30 91 Ba -1.3483 -4.7369 8.1900 0
M  V30 92 Ga -1.1344 -3.3239 7.7477 0
M  V30 93 Ba -1.0168 -1.8776 7.3842 0
M  V30 94 Ba 2.5134 0.6431 3.0337 0
M  V30 95 Ga 1.6961 0.4364 4.2460 0
M  V30 96 Ba 0.9399 0.3885 5.5139 0
M  V30 97 Ba 0.0799 -7.7123 7.0729 0
M  V30 98 Ga 0.2282 -7.7545 5.6062 0
M  V30 99 Ba 0.2800 -7.6346 4.1369 0
M  V30 END ATOM
M  V30 BEGIN BOND
M  V30 1 1 1 2
M  V30 2 1 1 3
M  V30 3 1 1 4
M  V30 4 1 1 5
M  V30 5 1 6 7
M  V30 6 1 6 8
M  V30 7 1 6 9
M  V30 8 1 6 10
M  V30 9 1 11 12
M  V30 10 1 11 13
M  V30 11 1 11 14
M  V30 12 1 11 15
M  V30 13 1 16 17
M  V30 14 1 16 18
M  V30 15 1 16 19
M  V30 16 1 16 20
M  V30 17 1 21 22
M  V30 18 1 21 23
M  V30 19 1 21 24
M  V30 20 1 21 25
M  V30 21 1 26 27
M  V30 22 1 26 28
M  V30 23 1 26 29
M  V30 24 1 26 30
M  V30 25 1 31 32
M  V30 26 1 31 33
M  V30 27 1 31 34
M  V30 28 1 31 35
M  V30 29 1 36 37
M  V30 30 1 36 38
M  V30 31 1 36 39
M  V30 32 1 36 40
M  V30 33 1 41 42
M  V30 34 1 41 43
M  V30 35 1 41 44
M  V30 36 1 41 45
M  V30 37 1 46 47
M  V30 38 1 47 48
M  V30 39 1 49 50
M  V30 40 1 50 51
M  V30 41 1 52 53
M  V30 42 1 53 54
M  V30 43 1 55 56
M  V30 44 1 56 57
M  V30 45 1 58 59
M  V30 46 1 59 60
M  V30 47 1 61 62
M  V30 48 1 62 63
M  V30 49 1 64 65
M  V30 50 1 65 66
M  V30 51 1 67 68
M  V30 52 1 68 69
M  V30 53 1 70 71
M  V30 54 1 71 72
M  V30 55 1 73 74
M  V30 56 1 74 75
M  V30 57 1 76 77
M  V30 58 1 77 78
M  V30 59 1 79 80
M  V30 60 1 80 81
M  V30 61 1 82 83
M  V30 62 1 83 84
M  V30 63 1 85 86
M  V30 64 1 86 87
M  V30 65 1 88 89
M  V30 66 1 89 90
M  V30 67 1 91 92
M  V30 68 1 92 93
M  V30 69 1 94 95
M  V30 70 1 95 96
M  V30 71 1 97 98
M  V30 72 1 98 99
M  V30 73 1 2 91
M  V30 74 1 3 64
M  V30 75 1 4 46
M  V30 76 1 5 97
M  V30 77 1 7 58
M  V30 78 1 8 88
M  V30 79 1 9 79
M  V30 80 1 10 73
M  V30 81 1 12 82
M  V30 82 1 13 55
M  V30 83 1 14 94
M  V30 84 1 15 52
M  V30 85 1 17 75
M  V30 86 1 18 76
M  V30 87 1 19 57
M  V30 88 1 20 81
M  V30 89 1 22 96
M  V30 90 1 23 48
M  V30 91 1 24 67
M  V30 92 1 25 93
M  V30 93 1 27 49
M  V30 94 1 28 61
M  V30 95 1 29 69
M  V30 96 1 30 78
M  V30 97 1 32 84
M  V30 98 1 33 70
M  V30 99 1 34 85
M  V30 100 1 35 51
M  V30 101 1 37 99
M  V30 102 1 38 54
M  V30 103 1 39 63
M  V30 104 1 40 66
M  V30 105 1 42 72
M  V30 106 1 43 60
M  V30 107 1 44 87
M  V30 108 1 45 90
M  V30 END BOND
M  V30 END CTAB
M  END

$$$$
