
     RDKit          3D

  0  0  0  0  0  0  0  0  0  0999 V3000
M  V30 BEGIN CTAB
M  V30 COUNTS 99 108 0 0 0
M  V30 BEGIN ATOM
M  V30 1 Pd -2.9546 -1.4560 2.3409 0
M  V30 2 Pb -3.3118 -2.0412 1.6246 0
M  V30 3 Pb -2.3958 -2.1750 2.8590 0
M  V30 4 Pb -3.3926 -0.7112 1.8334 0
M  V30 5 Pb -2.9849 -0.9323 3.1660 0
M  V30 6 Pd 6.2549 -2.4534 3.1921 0
M  V30 7 Pb 6.0877 -1.9310 2.2986 0
M  V30 8 Pb 5.8563 -3.3155 2.9329 0
M  V30 9 Pb 6.8345 -1.7681 3.6067 0
M  V30 10 Pb 6.2244 -2.9150 4.0737 0
M  V30 11 Pd 0.6265 0.7277 -6.5964 0
M  V30 12 Pb 0.4201 -0.1228 -6.1678 0
M  V30 13 Pb 1.3358 0.9031 -5.9151 0
M  V30 14 Pb 0.8937 1.5087 -7.1399 0
M  V30 15 Pb -0.2056 0.6686 -7.1491 0
M  V30 16 Pd -1.4483 5.1418 -3.3525 0
M  V30 17 Pb -1.1263 5.3044 -4.2628 0
M  V30 18 Pb -2.3444 5.3704 -3.6994 0
M  V30 19 Pb -0.6118 4.6807 -3.0521 0
M  V30 20 Pb -1.6724 5.2060 -2.4183 0
M  V30 21 Pd 3.0615 1.3144 -1.1650 0
M  V30 22 Pb 3.7333 0.6263 -0.7166 0
M  V30 23 Pb 3.0732 1.0097 -2.1037 0
M  V30 24 Pb 2.4260 2.0206 -1.5073 0
M  V30 25 Pb 3.2810 1.8630 -0.4047 0
M  V30 26 Pd -5.0653 3.1490 -1.3539 0
M  V30 27 Pb -5.2116 3.7486 -2.1199 0
M  V30 28 Pb -5.8405 2.6625 -1.6709 0
M  V30 29 Pb -4.8390 2.4429 -0.7174 0
M  V30 30 Pb -4.4683 3.7313 -0.8570 0
M  V30 31 Pd -5.3666 -2.0852 -4.9096 0
M  V30 32 Pb -5.4196 -2.3609 -3.9334 0
M  V30 33 Pb -6.2597 -1.6950 -4.8537 0
M  V30 34 Pb -5.2016 -1.6136 -5.7908 0
M  V30 35 Pb -4.4757 -2.5026 -4.9482 0
M  V30 36 Pd 2.8987 -0.0215 5.9271 0
M  V30 37 Pb 3.1696 0.3241 5.0542 0
M  V30 38 Pb 2.6526 -0.2418 6.8278 0
M  V30 39 Pb 3.7618 0.2964 6.2878 0
M  V30 40 Pb 1.9851 -0.2821 5.6164 0
M  V30 41 Pd 1.8431 -4.3625 5.5774 0
M  V30 42 Pb 1.9438 -5.2842 5.1810 0
M  V30 43 Pb 0.8873 -4.2316 5.1474 0
M  V30 44 Pb 1.7998 -3.6324 6.2767 0
M  V30 45 Pb 2.8353 -4.3703 5.7847 0
M  V30 46 Ag -3.7215 -2.4139 1.1437 0
M  V30 47 Fe -4.6688 -2.3549 -1.0086 0
M  V30 48 Ag -5.3863 -2.6195 -3.2347 0
M  V30 49 Ag 3.5594 2.1653 0.1616 0
M  V30 50 Fe 3.7787 1.3027 2.2985 0
M  V30 51 Ag 3.3819 0.7462 4.5196 0
M  V30 52 Ag -0.8594 0.6689 -7.4994 0
M  V30 53 Fe -3.0662 -0.0867 -7.1946 0
M  V30 54 Ag -4.9907 -1.2014 -6.3839 0
M  V30 55 Ag 5.6635 -4.0408 2.9386 0
M  V30 56 Fe 4.4417 -5.5643 4.2287 0
M  V30 57 Ag 2.2635 -5.9157 4.9363 0
M  V30 58 Ag 0.2306 -0.7861 -5.9577 0
M  V30 59 Fe -1.6560 -2.1713 -5.7948 0
M  V30 60 Ag -3.7918 -2.7606 -4.9972 0
M  V30 61 Ag 0.9736 2.1686 -7.4628 0
M  V30 62 Fe 0.2462 4.2616 -6.6618 0
M  V30 63 Ag -0.8515 5.4395 -4.9304 0
M  V30 64 Ag 7.2373 -1.4006 4.0800 0
M  V30 65 Fe 6.4323 -0.6142 6.1324 0
M  V30 66 Ag 4.4153 0.4588 6.5587 0
M  V30 67 Ag -2.9239 -0.6705 3.8272 0
M  V30 68 Fe -0.9712 -0.9143 5.0671 0
M  V30 69 Ag 1.2886 -0.3372 5.3625 0
M  V30 70 Ag -6.4448 2.3403 -1.9088 0
M  V30 71 Fe -7.1350 0.4903 -3.2023 0
M  V30 72 Ag -6.8565 -1.3220 -4.6643 0
M  V30 73 Ba 5.9191 -1.5620 1.5977 0
M  V30 74 Ga 5.0381 -0.6512 0.6997 0
M  V30 75 Ba 4.3544 0.1404 -0.4520 0
M  V30 76 Ba 0.0583 4.3949 -2.8852 0
M  V30 77 Ga 0.9085 3.3349 -2.3022 0
M  V30 78 Ba 2.1031 2.6055 -1.8425 0
M  V30 79 Ba -3.0115 5.3981 -3.9928 0
M  V30 80 Ga -4.1707 4.7405 -3.4311 0
M  V30 81 Ba -5.2721 4.1042 -2.7481 0
M  V30 82 Ba 6.0932 -3.2791 4.7294 0
M  V30 83 Ga 4.8420 -3.7740 5.3584 0
M  V30 84 Ba 3.5823 -4.3332 5.9470 0
M  V30 85 Ba -1.7882 5.3094 -1.7140 0
M  V30 86 Ga -2.8916 4.8293 -0.9524 0
M  V30 87 Ba -4.0404 4.1518 -0.4488 0
M  V30 88 Ba -3.8455 -0.2355 1.4731 0
M  V30 89 Ga -4.0975 0.8578 0.5214 0
M  V30 90 Ba -4.8251 1.8963 -0.2353 0
M  V30 91 Ba 2.4590 -0.5095 7.4717 0
M  V30 92 Ga 2.1992 -1.9269 7.4475 0
M  V30 93 Ba 1.7902 -3.2288 6.9187 0
M  V30 94 Ba -2.0325 -2.7685 3.2407 0
M  V30 95 Ga -0.8797 -3.3714 4.0466 0
M  V30 96 Ba 0.1446 -4.2099 4.8128 0
M  V30 97 Ba 1.9352 0.9761 -5.4819 0
M  V30 98 Ga 2.3951 1.0267 -4.0903 0
M  V30 99 Ba 3.1541 1.0212 -2.8451 0
M  V30 END ATOM
M  V30 BEGIN BOND
M  V30 1 1 1 2
M  V30 2 1 1 3
M  V30 3 1 1 4
M  V30 4 1 1 5
M  V30 5 1 6 7
M  V30 6 1 6 8
M  V30 7 1 6 9
M  V30 8 1 6 10
M  V30 9 1 11 12
M  V30 10 1 11 13
M  V30 11 1 11 14
M  V30 12 1 11 15
M  V30 13 1 16 17
M  V30 14 1 16 18
M  V30 15 1 16 19
M  V30 16 1 16 20
M  V30 17 1 21 22
M  V30 18 1 21 23
M  V30 19 1 21 24
M  V30 20 1 21 25
M  V30 21 1 26 27
M  V30 22 1 26 28
M  V30 23 1 26 29
M  V30 24 1 26 30
M  V30 25 1 31 32
M  V30 26 1 31 33
M  V30 27 1 31 34
M  V30 28 1 31 35
M  V30 29 1 36 37
M  V30 30 1 36 38
M  V30 31 1 36 39
M  V30 32 1 36 40
M  V30 33 1 41 42
M  V30 34 1 41 43
M  V30 35 1 41 44
M  V30 36 1 41 45
M  V30 37 1 46 47
M  V30 38 1 47 48
M  V30 39 1 49 50
M  V30 40 1 50 51
M  V30 41 1 52 53
M  V30 42 1 53 54
M  V30 43 1 55 56
M  V30 44 1 56 57
M  V30 45 1 58 59
M  V30 46 1 59 60
M  V30 47 1 61 62
M  V30 48 1 62 63
M  V30 49 1 64 65
M  V30 50 1 65 66
M  V30 51 1 67 68
M  V30 52 1 68 69
M  V30 53 1 70 71
M  V30 54 1 71 72
M  V30 55 1 73 74
M  V30 56 1 74 75
M  V30 57 1 76 77
M  V30 58 1 77 78
M  V30 59 1 79 80
M  V30 60 1 80 81
M  V30 61 1 82 83
M  V30 62 1 83 84
M  V30 63 1 85 86
M  V30 64 1 86 87
M  V30 65 1 88 89
M  V30 66 1 89 90
M  V30 67 1 91 92
M  V30 68 1 92 93
M  V30 69 1 94 95
M  V30 70 1 95 96
M  V30 71 1 97 98
M  V30 72 1 98 99
M  V30 73 1 2 46
M  V30 74 1 3 94
M  V30 75 1 4 88
M  V30 76 1 5 67
M  V30 77 1 7 73
M  V30 78 1 8 55
M  V30 79 1 9 64
M  V30 80 1 10 82
M  V30 81 1 12 58
M  V30 82 1 13 97
M  V30 83 1 14 61
M  V30 84 1 15 52
M  V30 85 1 17 63
M  V30 86 1 18 79
M  V30 87 1 19 76
M  V30 88 1 20 85
M  V30 89 1 22 75
M  V30 90 1 23 99
M  V30 91 1 24 78
M  V30 92 1 25 49
M  V30 93 1 27 81
M  V30 94 1 28 70
M  V30 95 1 29 90
M  V30 96 1 30 87
M  V30 97 1 32 48
M  V30 98 1 33 72
M  V30 99 1 34 54
M  V30 100 1 35 60
M  V30 101 1 37 51
M  V30 102 1 38 91
M  V30 103 1 39 66
M  V30 104 1 40 69
M  V30 105 1 42 57
M  V30 106 1 43 96
M  V30 107 1 44 93
M  V30 108 1 45 84
M  V30 END BOND
M  V30 END CTAB
M  END

$$$$
