
     RDKit          3D

  0  0  0  0  0  0  0  0  0  0999 V3000
M  V30 BEGIN CTAB
M  V30 COUNTS 99 108 0 0 0
M  V30 BEGIN ATOM
M  V30 1 Pd -2.6483 2.4916 -4.4622 0
M  V30 2 Pb -1.7721 2.2055 -4.8542 0
M  V30 3 Pb -3.5211 2.7490 -4.0511 0
M  V30 4 Pb -3.1314 2.3391 -5.3257 0
M  V30 5 Pb -2.2193 2.5635 -3.5648 0
M  V30 6 Pd -6.5308 -0.4127 -4.5721 0
M  V30 7 Pb -6.4391 -1.2920 -5.0330 0
M  V30 8 Pb -6.2400 0.0737 -5.3978 0
M  V30 9 Pb -6.5761 0.4655 -4.1015 0
M  V30 10 Pb -6.6981 -0.9053 -3.7162 0
M  V30 11 Pd 2.0850 -4.1500 1.7663 0
M  V30 12 Pb 2.7174 -3.8562 1.0566 0
M  V30 13 Pb 1.4187 -4.3756 2.4758 0
M  V30 14 Pb 2.7934 -3.9651 2.4459 0
M  V30 15 Pb 1.3545 -4.1987 1.0871 0
M  V30 16 Pd 6.1184 1.7232 4.7273 0
M  V30 17 Pb 6.4515 2.6470 4.8850 0
M  V30 18 Pb 6.5349 1.7701 3.8172 0
M  V30 19 Pb 5.5656 1.7835 5.5808 0
M  V30 20 Pb 5.8580 0.7613 4.6165 0
M  V30 21 Pd 0.5207 -1.2884 -2.8887 0
M  V30 22 Pb 0.5051 -0.5135 -2.2533 0
M  V30 23 Pb 0.4747 -2.0528 -3.5284 0
M  V30 24 Pb 0.2828 -1.9586 -2.1799 0
M  V30 25 Pb 0.6712 -0.6398 -3.6360 0
M  V30 26 Pd -3.4665 -3.9297 -2.9144 0
M  V30 27 Pb -4.0591 -4.0114 -3.7143 0
M  V30 28 Pb -2.8469 -3.8479 -2.1288 0
M  V30 29 Pb -4.2619 -3.6191 -2.3906 0
M  V30 30 Pb -2.6773 -4.1780 -3.4758 0
M  V30 31 Pd 3.8121 2.4280 -0.0243 0
M  V30 32 Pb 2.8672 2.2299 -0.2920 0
M  V30 33 Pb 3.4600 3.2690 0.3926 0
M  V30 34 Pb 4.1065 1.5614 -0.4156 0
M  V30 35 Pb 4.7509 2.5462 0.3134 0
M  V30 36 Pd -1.6117 -1.3352 2.1599 0
M  V30 37 Pb -1.6629 -0.7177 2.9455 0
M  V30 38 Pb -1.5845 -2.1240 2.7722 0
M  V30 39 Pb -1.5450 -0.5392 1.5585 0
M  V30 40 Pb -1.5088 -1.9747 1.3928 0
M  V30 41 Pd 1.6233 4.4407 6.2716 0
M  V30 42 Pb 2.1864 3.7971 6.8129 0
M  V30 43 Pb 2.2998 5.1548 6.4212 0
M  V30 44 Pb 1.2880 4.9720 5.4995 0
M  V30 45 Pb 0.9183 3.7444 6.1257 0
M  V30 46 Ag 3.3234 -3.7421 2.9264 0
M  V30 47 Fe 4.5178 -1.8666 3.7651 0
M  V30 48 Ag 5.6979 0.0263 4.5854 0
M  V30 49 Ag -1.6737 -0.2576 3.5384 0
M  V30 50 Fe -0.6489 1.4919 4.7777 0
M  V30 51 Ag 0.3703 3.2406 6.0225 0
M  V30 52 Ag 3.0905 3.8451 0.7066 0
M  V30 53 Fe 2.0835 4.7167 2.6741 0
M  V30 54 Ag 1.2328 5.2763 4.8199 0
M  V30 55 Ag -1.9383 2.5649 -2.8723 0
M  V30 56 Fe -1.6835 1.3313 -0.8603 0
M  V30 57 Ag -1.4457 0.0750 1.1396 0
M  V30 58 Ag 3.1625 -3.5440 0.5483 0
M  V30 59 Fe 3.8502 -1.4058 -0.1996 0
M  V30 60 Ag 4.2861 0.8773 -0.6489 0
M  V30 61 Ag 6.5814 3.3543 5.0599 0
M  V30 62 Fe 5.0940 4.9924 5.8502 0
M  V30 63 Ag 2.9019 5.5829 6.4536 0
M  V30 64 Ba -6.7476 -1.2990 -3.0776 0
M  V30 65 Ga -5.8496 -2.3333 -2.5219 0
M  V30 66 Ba -4.8847 -3.3544 -2.0625 0
M  V30 67 Ba -4.1900 2.8946 -3.7487 0
M  V30 68 Ga -5.4082 2.0704 -3.7217 0
M  V30 69 Ba -6.5444 1.1377 -3.7771 0
M  V30 70 Ba 5.1292 1.8493 6.2108 0
M  V30 71 Ga 3.9007 2.5829 6.6549 0
M  V30 72 Ba 2.6750 3.3015 7.1304 0
M  V30 73 Ba -3.5584 2.1858 -5.9247 0
M  V30 74 Ga -4.7626 1.3350 -6.0200 0
M  V30 75 Ba -5.9503 0.4572 -5.9757 0
M  V30 76 Ba 0.3662 -2.6563 -3.9563 0
M  V30 77 Ga -0.8175 -3.5318 -3.9847 0
M  V30 78 Ba -2.0684 -4.3040 -3.8946 0
M  V30 79 Ba -6.3295 -1.9689 -5.3290 0
M  V30 80 Ga -5.4382 -3.0455 -4.8697 0
M  V30 81 Ba -4.5102 -4.0412 -4.3111 0
M  V30 82 Ba -2.3188 -3.8277 -1.5915 0
M  V30 83 Ga -1.9223 -3.1083 -0.3610 0
M  V30 84 Ba -1.3748 -2.5049 0.8739 0
M  V30 85 Ba 0.4501 0.0988 -1.8198 0
M  V30 86 Ga 1.3359 1.0667 -1.1399 0
M  V30 87 Ba 2.1432 2.0810 -0.4304 0
M  V30 88 Ba 0.7889 -4.1752 0.5967 0
M  V30 89 Ga 0.4537 -3.3269 -0.5660 0
M  V30 90 Ba 0.0459 -2.5198 -1.7346 0
M  V30 91 Ba -1.1042 1.9778 -5.1130 0
M  V30 92 Ga -0.1646 0.9242 -4.6786 0
M  V30 93 Ba 0.7335 -0.1449 -4.1973 0
M  V30 94 Ba 6.7997 1.9078 3.1259 0
M  V30 95 Ga 6.1417 2.2211 1.8363 0
M  V30 96 Ba 5.4662 2.5341 0.5557 0
M  V30 97 Ba 0.8691 -4.4814 2.9733 0
M  V30 98 Ga -0.3406 -3.6624 3.1601 0
M  V30 99 Ba -1.4797 -2.7298 3.1994 0
M  V30 END ATOM
M  V30 BEGIN BOND
M  V30 1 1 1 2
M  V30 2 1 1 3
M  V30 3 1 1 4
M  V30 4 1 1 5
M  V30 5 1 6 7
M  V30 6 1 6 8
M  V30 7 1 6 9
M  V30 8 1 6 10
M  V30 9 1 11 12
M  V30 10 1 11 13
M  V30 11 1 11 14
M  V30 12 1 11 15
M  V30 13 1 16 17
M  V30 14 1 16 18
M  V30 15 1 16 19
M  V30 16 1 16 20
M  V30 17 1 21 22
M  V30 18 1 21 23
M  V30 19 1 21 24
M  V30 20 1 21 25
M  V30 21 1 26 27
M  V30 22 1 26 28
M  V30 23 1 26 29
M  V30 24 1 26 30
M  V30 25 1 31 32
M  V30 26 1 31 33
M  V30 27 1 31 34
M  V30 28 1 31 35
M  V30 29 1 36 37
M  V30 30 1 36 38
M  V30 31 1 36 39
M  V30 32 1 36 40
M  V30 33 1 41 42
M  V30 34 1 41 43
M  V30 35 1 41 44
M  V30 36 1 41 45
M  V30 37 1 46 47
M  V30 38 1 47 48
M  V30 39 1 49 50
M  V30 40 1 50 51
M  V30 41 1 52 53
M  V30 42 1 53 54
M  V30 43 1 55 56
M  V30 44 1 56 57
M  V30 45 1 58 59
M  V30 46 1 59 60
M  V30 47 1 61 62
M  V30 48 1 62 63
M  V30 49 1 64 65
M  V30 50 1 65 66
M  V30 51 1 67 68
M  V30 52 1 68 69
M  V30 53 1 70 71
M  V30 54 1 71 72
M  V30 55 1 73 74
M  V30 56 1 74 75
M  V30 57 1 76 77
M  V30 58 1 77 78
M  V30 59 1 79 80
M  V30 60 1 80 81
M  V30 61 1 82 83
M  V30 62 1 83 84
M  V30 63 1 85 86
M  V30 64 1 86 87
M  V30 65 1 88 89
M  V30 66 1 89 90
M  V30 67 1 91 92
M  V30 68 1 92 93
M  V30 69 1 94 95
M  V30 70 1 95 96
M  V30 71 1 97 98
M  V30 72 1 98 99
M  V30 73 1 2 91
M  V30 74 1 3 67
M  V30 75 1 4 73
M  V30 76 1 5 55
M  V30 77 1 7 79
M  V30 78 1 8 75
M  V30 79 1 9 69
M  V30 80 1 10 64
M  V30 81 1 12 58
M  V30 82 1 13 97
M  V30 83 1 14 46
M  V30 84 1 15 88
M  V30 85 1 17 61
M  V30 86 1 18 94
M  V30 87 1 19 70
M  V30 88 1 20 48
M  V30 89 1 22 85
M  V30 90 1 23 76
M  V30 91 1 24 90
M  V30 92 1 25 93
M  V30 93 1 27 81
M  V30 94 1 28 82
M  V30 95 1 29 66
M  V30 96 1 30 78
M  V30 97 1 32 87
M  V30 98 1 33 52
M  V30 99 1 34 60
M  V30 100 1 35 96
M  V30 101 1 37 49
M  V30 102 1 38 99
M  V30 103 1 39 57
M  V30 104 1 40 84
M  V30 105 1 42 72
M  V30 106 1 43 63
M  V30 107 1 44 54
M  V30 108 1 45 51
M  V30 END BOND
M  V30 END CTAB
M  END

$$$$
