
     RDKit          3D

  0  0  0  0  0  0  0  0  0  0999 V3000
M  V30 BEGIN CTAB
M  V30 COUNTS 99 108 0 0 0
M  V30 BEGIN ATOM
M  V30 1 Pd 2.1342 2.9819 3.1226 0
M  V30 2 Pb 1.9434 3.8468 3.5917 0
M  V30 3 Pb 2.3173 2.1315 2.6322 0
M  V30 4 Pb 2.6943 2.6373 3.8785 0
M  V30 5 Pb 1.5862 3.2925 2.3467 0
M  V30 6 Pd 4.3400 -3.5192 -6.4391 0
M  V30 7 Pb 3.4346 -3.8928 -6.2405 0
M  V30 8 Pb 5.2034 -3.0340 -6.5551 0
M  V30 9 Pb 3.9285 -2.9093 -7.1074 0
M  V30 10 Pb 4.7337 -3.9897 -5.6521 0
M  V30 11 Pd -5.8553 0.5070 0.7887 0
M  V30 12 Pb -5.9028 0.6829 1.7706 0
M  V30 13 Pb -5.8171 0.3549 -0.1991 0
M  V30 14 Pb -6.2197 -0.4161 0.9126 0
M  V30 15 Pb -5.4638 1.4255 0.6999 0
M  V30 16 Pd -3.3003 -3.8809 1.7205 0
M  V30 17 Pb -4.2881 -3.7606 1.6274 0
M  V30 18 Pb -2.3053 -3.9380 1.8372 0
M  V30 19 Pb -3.2591 -4.1457 0.7562 0
M  V30 20 Pb -3.3429 -3.6465 2.6894 0
M  V30 21 Pd -2.7385 -1.7896 -3.5751 0
M  V30 22 Pb -1.9751 -2.3029 -3.9762 0
M  V30 23 Pb -3.5636 -1.3234 -3.2484 0
M  V30 24 Pb -2.9409 -2.6141 -3.0439 0
M  V30 25 Pb -2.5501 -0.9668 -4.1165 0
M  V30 26 Pd 1.2840 -0.9147 6.4947 0
M  V30 27 Pb 1.4402 -1.5405 5.7268 0
M  V30 28 Pb 1.0473 -0.2415 7.1912 0
M  V30 29 Pb 2.1349 -0.4133 6.3371 0
M  V30 30 Pb 0.3895 -1.3438 6.5950 0
M  V30 31 Pd -2.2334 4.8565 5.3003 0
M  V30 32 Pb -1.3757 5.3453 5.1426 0
M  V30 33 Pb -1.8937 4.5886 6.1985 0
M  V30 34 Pb -2.5475 5.0079 4.3618 0
M  V30 35 Pb -3.0389 4.2803 5.4245 0
M  V30 36 Pd 1.0364 2.3329 -4.4424 0
M  V30 37 Pb 0.0953 2.1029 -4.6924 0
M  V30 38 Pb 1.9904 2.5214 -4.1923 0
M  V30 39 Pb 1.3226 1.9311 -5.3092 0
M  V30 40 Pb 0.7348 2.7419 -3.5812 0
M  V30 41 Pd 5.4313 -0.6133 -2.9273 0
M  V30 42 Pb 5.9867 -0.6280 -3.7590 0
M  V30 43 Pb 4.8812 -0.6268 -2.0932 0
M  V30 44 Pb 5.2297 0.3615 -3.0543 0
M  V30 45 Pb 5.5914 -1.5993 -2.8407 0
M  V30 46 Ag 2.7357 -4.1004 -6.0644 0
M  V30 47 Fe 0.6443 -3.4112 -5.1680 0
M  V30 48 Ag -1.4647 -2.7680 -4.2787 0
M  V30 49 Ag -1.5703 -3.9245 2.0040 0
M  V30 50 Fe 0.0392 -3.0245 3.5081 0
M  V30 51 Ag 1.4471 -2.0014 5.1308 0
M  V30 52 Ag -5.1566 2.1121 0.7181 0
M  V30 53 Fe -3.9807 3.6581 2.0894 0
M  V30 54 Ag -2.8140 5.0099 3.6591 0
M  V30 55 Ag -5.9054 0.8883 2.4903 0
M  V30 56 Fe -4.8477 2.3020 4.0753 0
M  V30 57 Ag -3.6127 3.8007 5.4385 0
M  V30 58 Ag -3.3016 -3.4824 3.4176 0
M  V30 59 Fe -1.8962 -2.5861 5.1045 0
M  V30 60 Ag -0.2935 -1.6458 6.5778 0
M  V30 61 Ag 3.6077 -2.3498 -7.4769 0
M  V30 62 Fe 2.5243 -0.3222 -6.9079 0
M  V30 63 Ag 1.5119 1.5919 -5.9474 0
M  V30 64 Ag 1.1862 3.4987 1.7475 0
M  V30 65 Fe 0.8278 3.2976 -0.5912 0
M  V30 66 Ag 0.5211 3.0530 -2.9332 0
M  V30 67 Ag 2.4551 1.5008 2.2530 0
M  V30 68 Fe 3.4631 0.4216 0.3946 0
M  V30 69 Ag 4.4728 -0.6533 -1.4655 0
M  V30 70 Ag 0.8194 0.3209 7.6260 0
M  V30 71 Fe -0.3722 2.3617 7.4504 0
M  V30 72 Ag -1.5956 4.2887 6.8135 0
M  V30 73 Ba 1.7778 4.5104 3.9053 0
M  V30 74 Ga 0.5519 5.1030 4.4773 0
M  V30 75 Ba -0.6984 5.6509 5.0409 0
M  V30 76 Ba -2.4801 -0.3280 -4.5090 0
M  V30 77 Ga -1.5135 0.7744 -4.6912 0
M  V30 78 Ba -0.5929 1.9074 -4.9197 0
M  V30 79 Ba -3.2711 -4.3725 0.0405 0
M  V30 80 Ga -3.1583 -3.7765 -1.3056 0
M  V30 81 Ba -3.0583 -3.2649 -2.6871 0
M  V30 82 Ba 5.0335 -4.2206 -5.0066 0
M  V30 83 Ga 5.3930 -3.3534 -3.8682 0
M  V30 84 Ba 5.6913 -2.3452 -2.8325 0
M  V30 85 Ba 5.8087 -2.5963 -6.5604 0
M  V30 86 Ga 6.1790 -1.6218 -5.5208 0
M  V30 87 Ba 6.3899 -0.7062 -4.3868 0
M  V30 88 Ba -6.4673 -1.1172 1.0112 0
M  V30 89 Ga -5.7760 -2.3915 1.2808 0
M  V30 90 Ba -5.0218 -3.6299 1.5492 0
M  V30 91 Ba 3.1256 2.3266 4.4107 0
M  V30 92 Ga 2.9528 1.1807 5.3268 0
M  V30 93 Ba 2.7311 0.0286 6.2242 0
M  V30 94 Ba 2.7047 2.6629 -3.9960 0
M  V30 95 Ga 3.8800 1.8651 -3.5796 0
M  V30 96 Ba 5.0698 1.0902 -3.1609 0
M  V30 97 Ba -5.8224 0.2441 -0.9410 0
M  V30 98 Ga -4.9676 -0.3757 -1.9735 0
M  V30 99 Ba -4.2048 -0.9609 -3.0943 0
M  V30 END ATOM
M  V30 BEGIN BOND
M  V30 1 1 1 2
M  V30 2 1 1 3
M  V30 3 1 1 4
M  V30 4 1 1 5
M  V30 5 1 6 7
M  V30 6 1 6 8
M  V30 7 1 6 9
M  V30 8 1 6 10
M  V30 9 1 11 12
M  V30 10 1 11 13
M  V30 11 1 11 14
M  V30 12 1 11 15
M  V30 13 1 16 17
M  V30 14 1 16 18
M  V30 15 1 16 19
M  V30 16 1 16 20
M  V30 17 1 21 22
M  V30 18 1 21 23
M  V30 19 1 21 24
M  V30 20 1 21 25
M  V30 21 1 26 27
M  V30 22 1 26 28
M  V30 23 1 26 29
M  V30 24 1 26 30
M  V30 25 1 31 32
M  V30 26 1 31 33
M  V30 27 1 31 34
M  V30 28 1 31 35
M  V30 29 1 36 37
M  V30 30 1 36 38
M  V30 31 1 36 39
M  V30 32 1 36 40
M  V30 33 1 41 42
M  V30 34 1 41 43
M  V30 35 1 41 44
M  V30 36 1 41 45
M  V30 37 1 46 47
M  V30 38 1 47 48
M  V30 39 1 49 50
M  V30 40 1 50 51
M  V30 41 1 52 53
M  V30 42 1 53 54
M  V30 43 1 55 56
M  V30 44 1 56 57
M  V30 45 1 58 59
M  V30 46 1 59 60
M  V30 47 1 61 62
M  V30 48 1 62 63
M  V30 49 1 64 65
M  V30 50 1 65 66
M  V30 51 1 67 68
M  V30 52 1 68 69
M  V30 53 1 70 71
M  V30 54 1 71 72
M  V30 55 1 73 74
M  V30 56 1 74 75
M  V30 57 1 76 77
M  V30 58 1 77 78
M  V30 59 1 79 80
M  V30 60 1 80 81
M  V30 61 1 82 83
M  V30 62 1 83 84
M  V30 63 1 85 86
M  V30 64 1 86 87
M  V30 65 1 88 89
M  V30 66 1 89 90
M  V30 67 1 91 92
M  V30 68 1 92 93
M  V30 69 1 94 95
M  V30 70 1 95 96
M  V30 71 1 97 98
M  V30 72 1 98 99
M  V30 73 1 2 73
M  V30 74 1 3 67
M  V30 75 1 4 91
M  V30 76 1 5 64
M  V30 77 1 7 46
M  V30 78 1 8 85
M  V30 79 1 9 61
M  V30 80 1 10 82
M  V30 81 1 12 55
M  V30 82 1 13 97
M  V30 83 1 14 88
M  V30 84 1 15 52
M  V30 85 1 17 90
M  V30 86 1 18 49
M  V30 87 1 19 79
M  V30 88 1 20 58
M  V30 89 1 22 48
M  V30 90 1 23 99
M  V30 91 1 24 81
M  V30 92 1 25 76
M  V30 93 1 27 51
M  V30 94 1 28 70
M  V30 95 1 29 93
M  V30 96 1 30 60
M  V30 97 1 32 75
M  V30 98 1 33 72
M  V30 99 1 34 54
M  V30 100 1 35 57
M  V30 101 1 37 78
M  V30 102 1 38 94
M  V30 103 1 39 63
M  V30 104 1 40 66
M  V30 105 1 42 87
M  V30 106 1 43 69
M  V30 107 1 44 96
M  V30 108 1 45 84
M  V30 END BOND
M  V30 END CTAB
M  END

$$$$
