
     RDKit          3D

  0  0  0  0  0  0  0  0  0  0999 V3000
M  V30 BEGIN CTAB
M  V30 COUNTS 99 108 0 0 0
M  V30 BEGIN ATOM
M  V30 1 Pd -3.8225 -0.2856 -1.1469 0
M  V30 2 Pb -4.3894 0.3269 -0.5956 0
M  V30 3 Pb -3.3493 -0.5295 -0.2997 0
M  V30 4 Pb -4.2452 0.0265 -1.9992 0
M  V30 5 Pb -3.2314 -0.8862 -1.6887 0
M  V30 6 Pd 0.2439 -5.5153 5.6987 0
M  V30 7 Pb 1.1134 -5.0355 5.5665 0
M  V30 8 Pb -0.1428 -4.7155 6.1579 0
M  V30 9 Pb 0.5717 -6.2770 5.1404 0
M  V30 10 Pb -0.6451 -5.9635 5.7987 0
M  V30 11 Pd 2.5129 4.0354 1.2391 0
M  V30 12 Pb 1.7884 3.6499 1.8213 0
M  V30 13 Pb 3.1927 3.4115 1.6369 0
M  V30 14 Pb 3.1866 4.4526 0.6259 0
M  V30 15 Pb 1.8758 4.7297 0.9219 0
M  V30 16 Pd 3.6753 4.0365 -4.2277 0
M  V30 17 Pb 3.8580 4.5690 -3.3969 0
M  V30 18 Pb 3.5547 3.4980 -5.0536 0
M  V30 19 Pb 4.3505 3.3788 -3.9026 0
M  V30 20 Pb 2.9417 4.6652 -4.5560 0
M  V30 21 Pd 5.0121 -1.1724 1.2153 0
M  V30 22 Pb 4.7475 -1.6566 2.0527 0
M  V30 23 Pb 5.0148 -0.3011 1.7092 0
M  V30 24 Pb 5.3181 -0.6987 0.3915 0
M  V30 25 Pb 4.9931 -2.0281 0.6979 0
M  V30 26 Pd -1.8947 4.4398 -6.1630 0
M  V30 27 Pb -1.4256 3.8737 -6.8310 0
M  V30 28 Pb -2.3818 4.9811 -5.4814 0
M  V30 29 Pb -2.6876 3.8319 -6.1748 0
M  V30 30 Pb -1.0353 4.9663 -6.0126 0
M  V30 31 Pd -2.7885 4.4512 1.0457 0
M  V30 32 Pb -3.5468 3.8064 1.1495 0
M  V30 33 Pb -3.2819 4.9245 0.3217 0
M  V30 34 Pb -2.0495 5.0963 0.8869 0
M  V30 35 Pb -2.2120 3.9636 1.7082 0
M  V30 36 Pd 0.4637 -6.4737 -1.4107 0
M  V30 37 Pb 1.4316 -6.2508 -1.5080 0
M  V30 38 Pb -0.5096 -6.5946 -1.2289 0
M  V30 39 Pb 0.6966 -7.0939 -0.6625 0
M  V30 40 Pb 0.2063 -5.7606 -2.0603 0
M  V30 41 Pd -3.5472 -3.5925 3.7181 0
M  V30 42 Pb -3.2008 -3.1609 4.5515 0
M  V30 43 Pb -3.2372 -2.8045 3.1844 0
M  V30 44 Pb -3.7949 -4.0889 2.8884 0
M  V30 45 Pb -3.7248 -4.4168 4.2519 0
M  V30 46 Ag 1.7575 -4.6637 5.4562 0
M  V30 47 Fe 3.1532 -3.3424 4.0563 0
M  V30 48 Ag 4.5812 -2.0197 2.6909 0
M  V30 49 Ag 4.9593 -2.6529 0.2843 0
M  V30 50 Fe 3.6241 -4.3791 -0.6503 0
M  V30 51 Ag 2.1463 -6.0295 -1.5034 0
M  V30 52 Ag 4.8256 2.8718 -3.6285 0
M  V30 53 Fe 5.2292 1.2540 -1.9411 0
M  V30 54 Ag 5.5620 -0.3469 -0.2224 0
M  V30 55 Ag 3.3562 3.1424 -5.6716 0
M  V30 56 Fe 1.3219 3.0024 -6.8478 0
M  V30 57 Ag -0.9536 3.4671 -7.2288 0
M  V30 58 Ag 0.7732 -6.8065 4.6495 0
M  V30 59 Fe 0.8781 -7.2869 2.3267 0
M  V30 60 Ag 0.8646 -7.4755 -0.0400 0
M  V30 61 Ag -4.4925 0.2881 -2.6584 0
M  V30 62 Fe -4.0022 1.7797 -4.4409 0
M  V30 63 Ag -3.2489 3.3499 -6.0562 0
M  V30 64 Ag -2.7890 -1.3247 -2.1098 0
M  V30 65 Fe -1.4043 -3.2394 -2.3540 0
M  V30 66 Ag -0.0448 -5.1841 -2.4665 0
M  V30 67 Ag -1.2333 -6.5763 -1.0433 0
M  V30 68 Fe -2.7081 -5.6157 0.5465 0
M  V30 69 Ag -3.8931 -4.5137 2.2807 0
M  V30 70 Ag -2.7800 5.3218 -4.9486 0
M  V30 71 Fe -3.2654 5.4020 -2.6295 0
M  V30 72 Ag -3.5494 5.2753 -0.2796 0
M  V30 73 Ba -4.7766 0.7773 -0.1372 0
M  V30 74 Ga -4.4686 2.0591 0.5267 0
M  V30 75 Ba -4.1354 3.3409 1.1783 0
M  V30 76 Ba 1.4179 5.2820 0.7227 0
M  V30 77 Ga -0.0395 5.4453 0.7154 0
M  V30 78 Ba -1.5007 5.5702 0.7213 0
M  V30 79 Ba -1.3397 -6.2429 5.8497 0
M  V30 80 Ga -2.5963 -5.7134 5.2911 0
M  V30 81 Ba -3.7466 -5.0432 4.6599 0
M  V30 82 Ba -0.4993 -4.1136 6.4287 0
M  V30 83 Ga -1.6901 -3.4451 5.8700 0
M  V30 84 Ba -2.8757 -2.9049 5.1776 0
M  V30 85 Ba 1.2235 3.3797 2.2458 0
M  V30 86 Ga -0.2554 3.4893 2.2166 0
M  V30 87 Ba -1.7331 3.6094 2.1722 0
M  V30 88 Ba 2.4076 5.1471 -4.8311 0
M  V30 89 Ga 0.9978 5.1845 -5.3398 0
M  V30 90 Ba -0.3932 5.3649 -5.8692 0
M  V30 91 Ba 3.6325 4.8269 0.1490 0
M  V30 92 Ga 3.8397 4.8593 -1.3156 0
M  V30 93 Ba 4.0806 4.9307 -2.7738 0
M  V30 94 Ba -2.9804 -0.6289 0.3463 0
M  V30 95 Ga -3.0082 -1.4709 1.5584 0
M  V30 96 Ba -2.9166 -2.2310 2.8204 0
M  V30 97 Ba 3.7135 3.0011 1.9975 0
M  V30 98 Ga 4.3400 1.6614 1.9932 0
M  V30 99 Ba 5.0288 0.3549 2.0754 0
M  V30 END ATOM
M  V30 BEGIN BOND
M  V30 1 1 1 2
M  V30 2 1 1 3
M  V30 3 1 1 4
M  V30 4 1 1 5
M  V30 5 1 6 7
M  V30 6 1 6 8
M  V30 7 1 6 9
M  V30 8 1 6 10
M  V30 9 1 11 12
M  V30 10 1 11 13
M  V30 11 1 11 14
M  V30 12 1 11 15
M  V30 13 1 16 17
M  V30 14 1 16 18
M  V30 15 1 16 19
M  V30 16 1 16 20
M  V30 17 1 21 22
M  V30 18 1 21 23
M  V30 19 1 21 24
M  V30 20 1 21 25
M  V30 21 1 26 27
M  V30 22 1 26 28
M  V30 23 1 26 29
M  V30 24 1 26 30
M  V30 25 1 31 32
M  V30 26 1 31 33
M  V30 27 1 31 34
M  V30 28 1 31 35
M  V30 29 1 36 37
M  V30 30 1 36 38
M  V30 31 1 36 39
M  V30 32 1 36 40
M  V30 33 1 41 42
M  V30 34 1 41 43
M  V30 35 1 41 44
M  V30 36 1 41 45
M  V30 37 1 46 47
M  V30 38 1 47 48
M  V30 39 1 49 50
M  V30 40 1 50 51
M  V30 41 1 52 53
M  V30 42 1 53 54
M  V30 43 1 55 56
M  V30 44 1 56 57
M  V30 45 1 58 59
M  V30 46 1 59 60
M  V30 47 1 61 62
M  V30 48 1 62 63
M  V30 49 1 64 65
M  V30 50 1 65 66
M  V30 51 1 67 68
M  V30 52 1 68 69
M  V30 53 1 70 71
M  V30 54 1 71 72
M  V30 55 1 73 74
M  V30 56 1 74 75
M  V30 57 1 76 77
M  V30 58 1 77 78
M  V30 59 1 79 80
M  V30 60 1 80 81
M  V30 61 1 82 83
M  V30 62 1 83 84
M  V30 63 1 85 86
M  V30 64 1 86 87
M  V30 65 1 88 89
M  V30 66 1 89 90
M  V30 67 1 91 92
M  V30 68 1 92 93
M  V30 69 1 94 95
M  V30 70 1 95 96
M  V30 71 1 97 98
M  V30 72 1 98 99
M  V30 73 1 2 73
M  V30 74 1 3 94
M  V30 75 1 4 61
M  V30 76 1 5 64
M  V30 77 1 7 46
M  V30 78 1 8 82
M  V30 79 1 9 58
M  V30 80 1 10 79
M  V30 81 1 12 85
M  V30 82 1 13 97
M  V30 83 1 14 91
M  V30 84 1 15 76
M  V30 85 1 17 93
M  V30 86 1 18 55
M  V30 87 1 19 52
M  V30 88 1 20 88
M  V30 89 1 22 48
M  V30 90 1 23 99
M  V30 91 1 24 54
M  V30 92 1 25 49
M  V30 93 1 27 57
M  V30 94 1 28 70
M  V30 95 1 29 63
M  V30 96 1 30 90
M  V30 97 1 32 75
M  V30 98 1 33 72
M  V30 99 1 34 78
M  V30 100 1 35 87
M  V30 101 1 37 51
M  V30 102 1 38 67
M  V30 103 1 39 60
M  V30 104 1 40 66
M  V30 105 1 42 84
M  V30 106 1 43 96
M  V30 107 1 44 69
M  V30 108 1 45 81
M  V30 END BOND
M  V30 END CTAB
M  END

$$$$
