
     RDKit          3D

  0  0  0  0  0  0  0  0  0  0999 V3000
M  V30 BEGIN CTAB
M  V30 COUNTS 99 108 0 0 0
M  V30 BEGIN ATOM
M  V30 1 Pd 0.5317 1.1760 2.4714 0
M  V30 2 Pb -0.0304 0.6415 3.1013 0
M  V30 3 Pb 0.8543 0.3089 2.0859 0
M  V30 4 Pb 0.1180 2.0203 2.8101 0
M  V30 5 Pb 1.0296 1.7337 1.8015 0
M  V30 6 Pd 7.1780 -4.5654 1.0175 0
M  V30 7 Pb 6.9833 -4.4265 0.0457 0
M  V30 8 Pb 6.4836 -5.2819 1.0715 0
M  V30 9 Pb 7.7771 -3.7666 0.9905 0
M  V30 10 Pb 7.2986 -4.6514 2.0075 0
M  V30 11 Pd -4.3177 -2.1122 -2.8636 0
M  V30 12 Pb -5.2395 -1.8902 -2.5328 0
M  V30 13 Pb -3.3917 -2.3401 -3.1657 0
M  V30 14 Pb -4.3928 -1.4786 -3.6371 0
M  V30 15 Pb -4.2351 -2.7669 -2.1134 0
M  V30 16 Pd -3.9814 3.2934 -3.9170 0
M  V30 17 Pb -4.0545 2.4676 -4.4765 0
M  V30 18 Pb -4.9720 3.3764 -3.9368 0
M  V30 19 Pb -2.9812 3.2432 -3.9304 0
M  V30 20 Pb -3.9402 4.1014 -3.2994 0
M  V30 21 Pd 3.1764 -0.1359 -3.7481 0
M  V30 22 Pb 3.8237 -0.8952 -3.6542 0
M  V30 23 Pb 2.4258 -0.7921 -3.8327 0
M  V30 24 Pb 2.5308 0.6253 -3.8276 0
M  V30 25 Pb 3.9259 0.5252 -3.6784 0
M  V30 26 Pd -5.6155 5.3154 1.2518 0
M  V30 27 Pb -6.4566 5.3071 0.7216 0
M  V30 28 Pb -6.0937 4.8294 1.9793 0
M  V30 29 Pb -4.7667 5.2880 1.7809 0
M  V30 30 Pb -5.1126 5.6303 0.4295 0
M  V30 31 Pd -6.0009 -1.7946 2.0069 0
M  V30 32 Pb -5.3404 -1.8128 2.7550 0
M  V30 33 Pb -6.4294 -0.9959 2.4297 0
M  V30 34 Pb -5.5362 -2.5655 1.5767 0
M  V30 35 Pb -6.5699 -1.7077 1.1865 0
M  V30 36 Pd 5.5503 2.3721 0.3000 0
M  V30 37 Pb 5.7043 2.4561 -0.6837 0
M  V30 38 Pb 5.3605 2.2199 1.2668 0
M  V30 39 Pb 6.4249 1.8990 0.4011 0
M  V30 40 Pb 4.6330 2.7523 0.1973 0
M  V30 41 Pd 3.5482 -3.5093 3.6457 0
M  V30 42 Pb 3.5176 -4.4043 3.2005 0
M  V30 43 Pb 2.8630 -3.1533 3.0081 0
M  V30 44 Pb 3.6555 -2.5932 4.0229 0
M  V30 45 Pb 4.3360 -3.8298 4.1697 0
M  V30 46 Ag 6.8083 -4.2748 -0.6687 0
M  V30 47 Fe 5.5710 -2.8930 -2.1550 0
M  V30 48 Ag 4.3035 -1.4689 -3.5745 0
M  V30 49 Ag -0.4983 0.2321 3.5191 0
M  V30 50 Fe -2.6251 -0.8204 3.5335 0
M  V30 51 Ag -4.7856 -1.7608 3.2539 0
M  V30 52 Ag -2.2300 3.2437 -3.9556 0
M  V30 53 Fe -0.1060 2.1787 -3.9110 0
M  V30 54 Ag 2.0651 1.2126 -3.8791 0
M  V30 55 Ag -5.6928 3.5095 -3.8318 0
M  V30 56 Fe -6.8520 4.3789 -1.9764 0
M  V30 57 Ag -6.9917 5.2179 0.2185 0
M  V30 58 Ag 8.1372 -3.1108 0.9584 0
M  V30 59 Fe 7.7443 -0.7813 0.7272 0
M  V30 60 Ag 7.0344 1.4704 0.4808 0
M  V30 61 Ag -0.2390 2.6479 3.0112 0
M  V30 62 Fe -2.1609 3.9945 2.6456 0
M  V30 63 Ag -4.1296 5.2366 2.1743 0
M  V30 64 Ag 5.1821 2.0278 1.9656 0
M  V30 65 Fe 4.4726 0.1726 3.2582 0
M  V30 66 Ag 3.7821 -1.8832 4.2133 0
M  V30 67 Ag -6.4351 4.3467 2.4359 0
M  V30 68 Fe -6.6641 2.0020 2.7210 0
M  V30 69 Ag -6.6951 -0.3710 2.7483 0
M  V30 70 Ag -2.6947 -2.5090 -3.3861 0
M  V30 71 Fe -0.4148 -1.8932 -3.6431 0
M  V30 72 Ag 1.8676 -1.2887 -3.9050 0
M  V30 73 Ba 4.4784 1.0331 -3.6342 0
M  V30 74 Ga 5.1473 1.7629 -2.5395 0
M  V30 75 Ba 5.8003 2.4791 -1.4266 0
M  V30 76 Ba -4.1919 -3.2554 -1.5474 0
M  V30 77 Ga -4.6693 -3.2208 -0.1550 0
M  V30 78 Ba -5.1739 -3.1163 1.2242 0
M  V30 79 Ba 7.3022 -4.7008 2.7568 0
M  V30 80 Ga 6.1986 -4.4091 3.6907 0
M  V30 81 Ba 4.9851 -4.0690 4.4567 0
M  V30 82 Ba 5.9061 -5.7488 1.1709 0
M  V30 83 Ga 4.7012 -5.4948 1.9814 0
M  V30 84 Ba 3.5823 -5.0559 2.8350 0
M  V30 85 Ba -5.9242 -1.7520 -2.2480 0
M  V30 86 Ga -6.4574 -1.6844 -0.8686 0
M  V30 87 Ba -6.9331 -1.6284 0.5321 0
M  V30 88 Ba -3.9044 4.7242 -2.8524 0
M  V30 89 Ga -4.3436 5.2297 -1.5153 0
M  V30 90 Ba -4.7325 5.8318 -0.2028 0
M  V30 91 Ba -4.4135 -1.0333 -4.2438 0
M  V30 92 Ga -4.2789 0.4064 -4.5462 0
M  V30 93 Ba -4.1486 1.8402 -4.8771 0
M  V30 94 Ba 1.3335 2.2105 1.3025 0
M  V30 95 Ga 2.6431 2.5819 0.7296 0
M  V30 96 Ba 3.9272 2.9910 0.1248 0
M  V30 97 Ba 1.0034 -0.3697 1.7964 0
M  V30 98 Ga 1.7223 -1.6059 2.1702 0
M  V30 99 Ba 2.4153 -2.8763 2.4713 0
M  V30 END ATOM
M  V30 BEGIN BOND
M  V30 1 1 1 2
M  V30 2 1 1 3
M  V30 3 1 1 4
M  V30 4 1 1 5
M  V30 5 1 6 7
M  V30 6 1 6 8
M  V30 7 1 6 9
M  V30 8 1 6 10
M  V30 9 1 11 12
M  V30 10 1 11 13
M  V30 11 1 11 14
M  V30 12 1 11 15
M  V30 13 1 16 17
M  V30 14 1 16 18
M  V30 15 1 16 19
M  V30 16 1 16 20
M  V30 17 1 21 22
M  V30 18 1 21 23
M  V30 19 1 21 24
M  V30 20 1 21 25
M  V30 21 1 26 27
M  V30 22 1 26 28
M  V30 23 1 26 29
M  V30 24 1 26 30
M  V30 25 1 31 32
M  V30 26 1 31 33
M  V30 27 1 31 34
M  V30 28 1 31 35
M  V30 29 1 36 37
M  V30 30 1 36 38
M  V30 31 1 36 39
M  V30 32 1 36 40
M  V30 33 1 41 42
M  V30 34 1 41 43
M  V30 35 1 41 44
M  V30 36 1 41 45
M  V30 37 1 46 47
M  V30 38 1 47 48
M  V30 39 1 49 50
M  V30 40 1 50 51
M  V30 41 1 52 53
M  V30 42 1 53 54
M  V30 43 1 55 56
M  V30 44 1 56 57
M  V30 45 1 58 59
M  V30 46 1 59 60
M  V30 47 1 61 62
M  V30 48 1 62 63
M  V30 49 1 64 65
M  V30 50 1 65 66
M  V30 51 1 67 68
M  V30 52 1 68 69
M  V30 53 1 70 71
M  V30 54 1 71 72
M  V30 55 1 73 74
M  V30 56 1 74 75
M  V30 57 1 76 77
M  V30 58 1 77 78
M  V30 59 1 79 80
M  V30 60 1 80 81
M  V30 61 1 82 83
M  V30 62 1 83 84
M  V30 63 1 85 86
M  V30 64 1 86 87
M  V30 65 1 88 89
M  V30 66 1 89 90
M  V30 67 1 91 92
M  V30 68 1 92 93
M  V30 69 1 94 95
M  V30 70 1 95 96
M  V30 71 1 97 98
M  V30 72 1 98 99
M  V30 73 1 2 49
M  V30 74 1 3 97
M  V30 75 1 4 61
M  V30 76 1 5 94
M  V30 77 1 7 46
M  V30 78 1 8 82
M  V30 79 1 9 58
M  V30 80 1 10 79
M  V30 81 1 12 85
M  V30 82 1 13 70
M  V30 83 1 14 91
M  V30 84 1 15 76
M  V30 85 1 17 93
M  V30 86 1 18 55
M  V30 87 1 19 52
M  V30 88 1 20 88
M  V30 89 1 22 48
M  V30 90 1 23 72
M  V30 91 1 24 54
M  V30 92 1 25 73
M  V30 93 1 27 57
M  V30 94 1 28 67
M  V30 95 1 29 63
M  V30 96 1 30 90
M  V30 97 1 32 51
M  V30 98 1 33 69
M  V30 99 1 34 78
M  V30 100 1 35 87
M  V30 101 1 37 75
M  V30 102 1 38 64
M  V30 103 1 39 60
M  V30 104 1 40 96
M  V30 105 1 42 84
M  V30 106 1 43 99
M  V30 107 1 44 66
M  V30 108 1 45 81
M  V30 END BOND
M  V30 END CTAB
M  END

$$$$
