
     RDKit          3D

  0  0  0  0  0  0  0  0  0  0999 V3000
M  V30 BEGIN CTAB
M  V30 COUNTS 99 108 0 0 0
M  V30 BEGIN ATOM
M  V30 1 Pd 1.8585 6.3510 -0.5848 0
M  V30 2 Pb 0.8409 6.2628 -0.5325 0
M  V30 3 Pb 2.8476 6.3653 -0.6833 0
M  V30 4 Pb 1.8100 6.4618 -1.5673 0
M  V30 5 Pb 1.9793 6.1916 0.3991 0
M  V30 6 Pd -7.0487 0.5109 0.4064 0
M  V30 7 Pb -6.9618 0.8022 1.3608 0
M  V30 8 Pb -7.1944 -0.4204 0.7252 0
M  V30 9 Pb -6.8271 1.4360 0.0909 0
M  V30 10 Pb -7.0560 0.1334 -0.5161 0
M  V30 11 Pd 5.0969 3.0267 1.5253 0
M  V30 12 Pb 5.2419 3.7118 0.8166 0
M  V30 13 Pb 4.5595 3.7030 2.0355 0
M  V30 14 Pb 5.0692 2.3784 2.2853 0
M  V30 15 Pb 5.5046 2.3234 0.9406 0
M  V30 16 Pd -1.7626 -1.5249 -3.6031 0
M  V30 17 Pb -0.8907 -1.0518 -3.4687 0
M  V30 18 Pb -1.4364 -2.3775 -3.1816 0
M  V30 19 Pb -2.6838 -1.8926 -3.6846 0
M  V30 20 Pb -2.1810 -0.7125 -4.0153 0
M  V30 21 Pd 2.3215 -5.4345 -1.4516 0
M  V30 22 Pb 3.2342 -5.7591 -1.2265 0
M  V30 23 Pb 1.3875 -5.1439 -1.6798 0
M  V30 24 Pb 2.0269 -5.6698 -0.5074 0
M  V30 25 Pb 2.6990 -5.0581 -2.2952 0
M  V30 26 Pd -3.1844 3.7409 -2.6126 0
M  V30 27 Pb -2.5037 3.9324 -3.3043 0
M  V30 28 Pb -3.9738 3.6491 -1.9964 0
M  V30 29 Pb -3.5146 3.0402 -3.2411 0
M  V30 30 Pb -2.7481 4.4209 -1.9858 0
M  V30 31 Pd 3.0058 -1.5393 -0.5452 0
M  V30 32 Pb 2.1807 -1.8316 -0.0511 0
M  V30 33 Pb 2.4861 -0.9499 -1.1632 0
M  V30 34 Pb 3.8457 -0.9955 -0.6460 0
M  V30 35 Pb 3.5562 -1.7284 -1.3574 0
M  V30 36 Pd -3.7867 -1.5931 3.3635 0
M  V30 37 Pb -4.5589 -2.0577 2.9359 0
M  V30 38 Pb -3.0055 -1.1964 3.8323 0
M  V30 39 Pb -4.4259 -0.9066 3.7146 0
M  V30 40 Pb -3.1170 -2.1911 2.9228 0
M  V30 41 Pd 3.3696 -3.7958 3.9632 0
M  V30 42 Pb 4.1804 -4.3213 3.7278 0
M  V30 43 Pb 3.9200 -3.0677 4.3603 0
M  V30 44 Pb 2.5855 -3.2224 4.1935 0
M  V30 45 Pb 2.8045 -4.4569 3.4338 0
M  V30 46 Ag -2.3591 -1.0216 4.1558 0
M  V30 47 Fe -0.1321 -1.8202 4.3105 0
M  V30 48 Ag 2.0580 -2.7262 4.3843 0
M  V30 49 Ag 1.7078 6.4197 -2.2949 0
M  V30 50 Fe 0.0150 5.3693 -3.5371 0
M  V30 51 Ag -1.9895 4.1695 -3.7758 0
M  V30 52 Ag 3.8842 -5.9558 -0.9307 0
M  V30 53 Fe 4.7828 -5.5831 1.2131 0
M  V30 54 Ag 4.7131 -4.7174 3.4009 0
M  V30 55 Ag 1.5839 -2.1634 0.2728 0
M  V30 56 Fe -0.4882 -2.3300 1.4300 0
M  V30 57 Ag -2.5559 -2.5584 2.5849 0
M  V30 58 Ag 5.1213 1.8944 2.8554 0
M  V30 59 Fe 4.7376 -0.2522 3.7902 0
M  V30 60 Ag 4.2634 -2.4409 4.5724 0
M  V30 61 Ag -6.9833 -0.2605 -1.1466 0
M  V30 62 Fe -5.3468 -1.2308 -2.5599 0
M  V30 63 Ag -3.4215 -1.9947 -3.7109 0
M  V30 64 Ba 5.7499 1.7919 0.4687 0
M  V30 65 Ga 5.1230 0.5836 -0.1130 0
M  V30 66 Ba 4.5025 -0.6254 -0.7000 0
M  V30 67 Ba -6.6490 2.1409 -0.1020 0
M  V30 68 Ga -5.5910 2.8498 -0.8566 0
M  V30 69 Ba -4.6010 3.6822 -1.5758 0
M  V30 70 Ba 3.5828 6.3047 -0.7801 0
M  V30 71 Ga 4.5176 5.3057 -0.2489 0
M  V30 72 Ba 5.3733 4.2639 0.3315 0
M  V30 73 Ba -7.2200 -1.1246 0.9658 0
M  V30 74 Ga -6.2337 -1.8198 1.8023 0
M  V30 75 Ba -5.1666 -2.3786 2.6421 0
M  V30 76 Ba 3.0725 -4.6705 -2.8140 0
M  V30 77 Ga 3.5409 -3.2996 -2.5580 0
M  V30 78 Ba 3.8420 -1.9692 -2.0064 0
M  V30 79 Ba 2.1420 6.0574 1.1237 0
M  V30 80 Ga 3.1102 5.1443 1.7745 0
M  V30 81 Ba 4.0985 4.2061 2.3561 0
M  V30 82 Ba -1.3004 -3.0507 -2.8674 0
M  V30 83 Ga -0.2404 -3.9539 -2.3650 0
M  V30 84 Ba 0.6618 -4.9922 -1.8173 0
M  V30 85 Ba -2.6157 -0.1819 -4.3274 0
M  V30 86 Ga -3.1266 1.1714 -4.0292 0
M  V30 87 Ba -3.6539 2.5259 -3.7668 0
M  V30 88 Ba -0.2828 -0.6248 -3.3557 0
M  V30 89 Ga 0.9195 -0.6069 -2.4999 0
M  V30 90 Ba 2.1414 -0.5249 -1.6760 0
M  V30 91 Ba 1.8238 -5.8236 0.2164 0
M  V30 92 Ga 2.1369 -5.3534 1.6035 0
M  V30 93 Ba 2.3831 -4.9528 3.0254 0
M  V30 94 Ba -6.8514 0.9479 2.0901 0
M  V30 95 Ga -5.9080 0.3269 3.0437 0
M  V30 96 Ba -4.9214 -0.3707 3.8950 0
M  V30 97 Ba 0.0716 6.2192 -0.4812 0
M  V30 98 Ga -1.1348 5.5269 -1.0468 0
M  V30 99 Ba -2.4382 4.9337 -1.4986 0
M  V30 END ATOM
M  V30 BEGIN BOND
M  V30 1 1 1 2
M  V30 2 1 1 3
M  V30 3 1 1 4
M  V30 4 1 1 5
M  V30 5 1 6 7
M  V30 6 1 6 8
M  V30 7 1 6 9
M  V30 8 1 6 10
M  V30 9 1 11 12
M  V30 10 1 11 13
M  V30 11 1 11 14
M  V30 12 1 11 15
M  V30 13 1 16 17
M  V30 14 1 16 18
M  V30 15 1 16 19
M  V30 16 1 16 20
M  V30 17 1 21 22
M  V30 18 1 21 23
M  V30 19 1 21 24
M  V30 20 1 21 25
M  V30 21 1 26 27
M  V30 22 1 26 28
M  V30 23 1 26 29
M  V30 24 1 26 30
M  V30 25 1 31 32
M  V30 26 1 31 33
M  V30 27 1 31 34
M  V30 28 1 31 35
M  V30 29 1 36 37
M  V30 30 1 36 38
M  V30 31 1 36 39
M  V30 32 1 36 40
M  V30 33 1 41 42
M  V30 34 1 41 43
M  V30 35 1 41 44
M  V30 36 1 41 45
M  V30 37 1 46 47
M  V30 38 1 47 48
M  V30 39 1 49 50
M  V30 40 1 50 51
M  V30 41 1 52 53
M  V30 42 1 53 54
M  V30 43 1 55 56
M  V30 44 1 56 57
M  V30 45 1 58 59
M  V30 46 1 59 60
M  V30 47 1 61 62
M  V30 48 1 62 63
M  V30 49 1 64 65
M  V30 50 1 65 66
M  V30 51 1 67 68
M  V30 52 1 68 69
M  V30 53 1 70 71
M  V30 54 1 71 72
M  V30 55 1 73 74
M  V30 56 1 74 75
M  V30 57 1 76 77
M  V30 58 1 77 78
M  V30 59 1 79 80
M  V30 60 1 80 81
M  V30 61 1 82 83
M  V30 62 1 83 84
M  V30 63 1 85 86
M  V30 64 1 86 87
M  V30 65 1 88 89
M  V30 66 1 89 90
M  V30 67 1 91 92
M  V30 68 1 92 93
M  V30 69 1 94 95
M  V30 70 1 95 96
M  V30 71 1 97 98
M  V30 72 1 98 99
M  V30 73 1 2 97
M  V30 74 1 3 70
M  V30 75 1 4 49
M  V30 76 1 5 79
M  V30 77 1 7 94
M  V30 78 1 8 73
M  V30 79 1 9 67
M  V30 80 1 10 61
M  V30 81 1 12 72
M  V30 82 1 13 81
M  V30 83 1 14 58
M  V30 84 1 15 64
M  V30 85 1 17 88
M  V30 86 1 18 82
M  V30 87 1 19 63
M  V30 88 1 20 85
M  V30 89 1 22 52
M  V30 90 1 23 84
M  V30 91 1 24 91
M  V30 92 1 25 76
M  V30 93 1 27 51
M  V30 94 1 28 69
M  V30 95 1 29 87
M  V30 96 1 30 99
M  V30 97 1 32 55
M  V30 98 1 33 90
M  V30 99 1 34 66
M  V30 100 1 35 78
M  V30 101 1 37 75
M  V30 102 1 38 46
M  V30 103 1 39 96
M  V30 104 1 40 57
M  V30 105 1 42 54
M  V30 106 1 43 60
M  V30 107 1 44 48
M  V30 108 1 45 93
M  V30 END BOND
M  V30 END CTAB
M  END

$$$$
