
     RDKit          3D

  0  0  0  0  0  0  0  0  0  0999 V3000
M  V30 BEGIN CTAB
M  V30 COUNTS 99 108 0 0 0
M  V30 BEGIN ATOM
M  V30 1 Pd 1.0980 3.1390 3.9011 0
M  V30 2 Pb 1.6518 2.7146 4.6184 0
M  V30 3 Pb 0.2870 2.6328 4.2035 0
M  V30 4 Pb 1.9111 3.6294 3.5970 0
M  V30 5 Pb 0.6101 3.5276 3.1205 0
M  V30 6 Pd -7.5332 -0.7903 0.2264 0
M  V30 7 Pb -6.5964 -1.1230 0.1509 0
M  V30 8 Pb -8.4594 -0.4308 0.3135 0
M  V30 9 Pb -7.4640 -0.4247 -0.7032 0
M  V30 10 Pb -7.5525 -1.0466 1.2090 0
M  V30 11 Pd 2.3288 -4.4797 -1.1517 0
M  V30 12 Pb 1.6520 -4.3005 -0.4520 0
M  V30 13 Pb 1.6000 -4.7941 -1.7559 0
M  V30 14 Pb 2.9602 -4.7072 -1.8943 0
M  V30 15 Pb 3.0662 -4.1050 -0.5455 0
M  V30 16 Pd 4.3114 -1.8164 -5.1973 0
M  V30 17 Pb 4.2402 -2.8071 -5.1136 0
M  V30 18 Pb 5.1735 -1.8820 -4.7036 0
M  V30 19 Pb 3.4447 -1.7481 -5.6978 0
M  V30 20 Pb 4.4192 -0.8216 -5.1523 0
M  V30 21 Pd -1.1058 -1.6963 -4.0951 0
M  V30 22 Pb -1.6380 -1.7485 -3.2524 0
M  V30 23 Pb -0.8973 -2.6684 -3.9889 0
M  V30 24 Pb -0.5350 -1.6559 -4.9174 0
M  V30 25 Pb -1.3627 -0.7359 -4.2265 0
M  V30 26 Pd 7.3050 1.9480 0.0460 0
M  V30 27 Pb 7.6745 1.1556 -0.4277 0
M  V30 28 Pb 7.5746 1.5588 0.9261 0
M  V30 29 Pb 6.8778 2.7155 0.5163 0
M  V30 30 Pb 6.9359 2.2475 -0.8371 0
M  V30 31 Pd 4.3573 -0.9227 3.4613 0
M  V30 32 Pb 4.2023 -0.2896 4.2228 0
M  V30 33 Pb 5.3149 -0.6276 3.3972 0
M  V30 34 Pb 4.4794 -1.5833 2.6856 0
M  V30 35 Pb 3.4135 -1.2031 3.5633 0
M  V30 36 Pd -4.0549 2.7607 -1.8566 0
M  V30 37 Pb -3.5303 2.4153 -2.6393 0
M  V30 38 Pb -4.5286 3.1785 -1.0791 0
M  V30 39 Pb -4.8717 2.2712 -2.1784 0
M  V30 40 Pb -3.2509 3.2363 -1.5063 0
M  V30 41 Pd -6.6539 1.8629 4.7613 0
M  V30 42 Pb -7.6159 2.0942 4.6360 0
M  V30 43 Pb -5.6867 1.6286 4.8807 0
M  V30 44 Pb -6.4084 2.7784 4.4635 0
M  V30 45 Pb -6.9003 0.8877 4.7189 0
M  V30 46 Ag -5.8880 -1.3505 0.0848 0
M  V30 47 Fe -3.9533 -1.5838 -1.2681 0
M  V30 48 Ag -2.0103 -1.8233 -2.6078 0
M  V30 49 Ag 5.8053 -1.8888 -4.3084 0
M  V30 50 Fe 6.9813 -0.7777 -2.5799 0
M  V30 51 Ag 7.8590 0.5627 -0.8371 0
M  V30 52 Ag -9.0747 -0.0838 0.5391 0
M  V30 53 Fe -9.2945 1.2399 2.4724 0
M  V30 54 Ag -8.3156 2.1695 4.4005 0
M  V30 55 Ag 1.2156 -4.1152 0.1121 0
M  V30 56 Fe 1.5363 -2.8166 2.0445 0
M  V30 57 Ag 2.7233 -1.4608 3.5533 0
M  V30 58 Ag 4.5733 -0.1000 -5.0058 0
M  V30 59 Fe 5.5723 1.2737 -3.3408 0
M  V30 60 Ag 6.6213 2.3719 -1.5100 0
M  V30 61 Ag 2.5305 3.9665 3.3511 0
M  V30 62 Fe 4.5493 3.7140 2.1345 0
M  V30 63 Ag 6.5100 3.2491 0.8860 0
M  V30 64 Ag 0.3171 3.8114 2.4916 0
M  V30 65 Fe -1.1811 3.7162 0.6529 0
M  V30 66 Ag -2.6900 3.6046 -1.1761 0
M  V30 67 Ag -4.7720 3.5516 -0.4723 0
M  V30 68 Fe -5.5053 3.6041 1.7858 0
M  V30 69 Ag -6.2472 3.3604 4.0277 0
M  V30 70 Ag -0.3053 2.2342 4.4420 0
M  V30 71 Fe -2.6425 1.8729 4.6890 0
M  V30 72 Ag -4.9636 1.4434 4.9747 0
M  V30 73 Ba 2.1182 2.3915 5.1103 0
M  V30 74 Ga 3.0849 1.2819 4.9784 0
M  V30 75 Ba 4.0378 0.1672 4.7976 0
M  V30 76 Ba -1.5606 -0.0243 -4.3718 0
M  V30 77 Ga -2.3527 1.0637 -3.7586 0
M  V30 78 Ba -3.1189 2.2168 -3.2385 0
M  V30 79 Ba 2.8032 -1.6953 -6.0887 0
M  V30 80 Ga 1.3551 -1.6625 -5.7928 0
M  V30 81 Ba -0.0992 -1.6269 -5.5294 0
M  V30 82 Ba 3.6538 -3.8381 -0.1169 0
M  V30 83 Ga 4.0366 -2.9306 1.0196 0
M  V30 84 Ba 4.6273 -2.0900 2.1177 0
M  V30 85 Ba -7.5614 -1.2210 1.9547 0
M  V30 86 Ga -7.3252 -0.5270 3.2558 0
M  V30 87 Ba -7.0885 0.1701 4.5550 0
M  V30 88 Ba 3.3444 -4.9189 -2.5048 0
M  V30 89 Ga 3.8052 -4.2508 -3.7365 0
M  V30 90 Ba 4.2518 -3.5358 -4.9469 0
M  V30 91 Ba -7.3819 -0.1035 -1.3779 0
M  V30 92 Ga -6.4267 0.8935 -1.9104 0
M  V30 93 Ba -5.4700 1.8913 -2.4390 0
M  V30 94 Ba 7.7234 1.2256 1.5810 0
M  V30 95 Ga 6.8847 0.4135 2.4870 0
M  V30 96 Ba 6.0328 -0.3974 3.3819 0
M  V30 97 Ba 1.0641 -4.9964 -2.2361 0
M  V30 98 Ga 0.1391 -4.2137 -3.0739 0
M  V30 99 Ba -0.7721 -3.4024 -3.8995 0
M  V30 END ATOM
M  V30 BEGIN BOND
M  V30 1 1 1 2
M  V30 2 1 1 3
M  V30 3 1 1 4
M  V30 4 1 1 5
M  V30 5 1 6 7
M  V30 6 1 6 8
M  V30 7 1 6 9
M  V30 8 1 6 10
M  V30 9 1 11 12
M  V30 10 1 11 13
M  V30 11 1 11 14
M  V30 12 1 11 15
M  V30 13 1 16 17
M  V30 14 1 16 18
M  V30 15 1 16 19
M  V30 16 1 16 20
M  V30 17 1 21 22
M  V30 18 1 21 23
M  V30 19 1 21 24
M  V30 20 1 21 25
M  V30 21 1 26 27
M  V30 22 1 26 28
M  V30 23 1 26 29
M  V30 24 1 26 30
M  V30 25 1 31 32
M  V30 26 1 31 33
M  V30 27 1 31 34
M  V30 28 1 31 35
M  V30 29 1 36 37
M  V30 30 1 36 38
M  V30 31 1 36 39
M  V30 32 1 36 40
M  V30 33 1 41 42
M  V30 34 1 41 43
M  V30 35 1 41 44
M  V30 36 1 41 45
M  V30 37 1 46 47
M  V30 38 1 47 48
M  V30 39 1 49 50
M  V30 40 1 50 51
M  V30 41 1 52 53
M  V30 42 1 53 54
M  V30 43 1 55 56
M  V30 44 1 56 57
M  V30 45 1 58 59
M  V30 46 1 59 60
M  V30 47 1 61 62
M  V30 48 1 62 63
M  V30 49 1 64 65
M  V30 50 1 65 66
M  V30 51 1 67 68
M  V30 52 1 68 69
M  V30 53 1 70 71
M  V30 54 1 71 72
M  V30 55 1 73 74
M  V30 56 1 74 75
M  V30 57 1 76 77
M  V30 58 1 77 78
M  V30 59 1 79 80
M  V30 60 1 80 81
M  V30 61 1 82 83
M  V30 62 1 83 84
M  V30 63 1 85 86
M  V30 64 1 86 87
M  V30 65 1 88 89
M  V30 66 1 89 90
M  V30 67 1 91 92
M  V30 68 1 92 93
M  V30 69 1 94 95
M  V30 70 1 95 96
M  V30 71 1 97 98
M  V30 72 1 98 99
M  V30 73 1 2 73
M  V30 74 1 3 70
M  V30 75 1 4 61
M  V30 76 1 5 64
M  V30 77 1 7 46
M  V30 78 1 8 52
M  V30 79 1 9 91
M  V30 80 1 10 85
M  V30 81 1 12 55
M  V30 82 1 13 97
M  V30 83 1 14 88
M  V30 84 1 15 82
M  V30 85 1 17 90
M  V30 86 1 18 49
M  V30 87 1 19 79
M  V30 88 1 20 58
M  V30 89 1 22 48
M  V30 90 1 23 99
M  V30 91 1 24 81
M  V30 92 1 25 76
M  V30 93 1 27 51
M  V30 94 1 28 94
M  V30 95 1 29 63
M  V30 96 1 30 60
M  V30 97 1 32 75
M  V30 98 1 33 96
M  V30 99 1 34 84
M  V30 100 1 35 57
M  V30 101 1 37 78
M  V30 102 1 38 67
M  V30 103 1 39 93
M  V30 104 1 40 66
M  V30 105 1 42 54
M  V30 106 1 43 72
M  V30 107 1 44 69
M  V30 108 1 45 87
M  V30 END BOND
M  V30 END CTAB
M  END

$$$$
