
     RDKit          3D

  0  0  0  0  0  0  0  0  0  0999 V3000
M  V30 BEGIN CTAB
M  V30 COUNTS 99 108 0 0 0
M  V30 BEGIN ATOM
M  V30 1 Pd -0.0417 -3.5504 -2.9284 0
M  V30 2 Pb 0.4973 -4.3873 -2.8318 0
M  V30 3 Pb -0.2739 -3.6099 -1.9563 0
M  V30 4 Pb 0.2634 -3.4339 -3.8733 0
M  V30 5 Pb -0.5413 -2.6899 -3.0046 0
M  V30 6 Pd -6.1619 -0.0936 6.6824 0
M  V30 7 Pb -5.5552 0.6924 6.7965 0
M  V30 8 Pb -6.7133 -0.8784 6.4177 0
M  V30 9 Pb -6.8331 0.4755 6.2168 0
M  V30 10 Pb -5.4226 -0.7334 6.8921 0
M  V30 11 Pd 3.5476 1.6139 2.1319 0
M  V30 12 Pb 2.9886 0.9333 2.5914 0
M  V30 13 Pb 3.0324 2.3415 2.5880 0
M  V30 14 Pb 4.1171 2.3037 1.6796 0
M  V30 15 Pb 4.1024 0.8657 1.7197 0
M  V30 16 Pd 4.2818 4.0357 -2.8970 0
M  V30 17 Pb 4.6406 4.0799 -1.9623 0
M  V30 18 Pb 3.9364 3.9838 -3.8361 0
M  V30 19 Pb 3.3752 4.3066 -2.5744 0
M  V30 20 Pb 5.1801 3.7605 -3.2399 0
M  V30 21 Pd -1.5535 4.1501 2.3700 0
M  V30 22 Pb -1.9657 3.9586 3.2639 0
M  V30 23 Pb -0.6469 4.1466 2.7945 0
M  V30 24 Pb -1.1402 4.3706 1.4868 0
M  V30 25 Pb -2.4565 4.2003 1.9380 0
M  V30 26 Pd 5.1597 0.4012 -6.2577 0
M  V30 27 Pb 4.6266 1.2152 -6.4833 0
M  V30 28 Pb 5.6468 -0.4026 -5.9249 0
M  V30 29 Pb 4.4190 -0.1998 -6.5575 0
M  V30 30 Pb 5.8686 0.9950 -5.8797 0
M  V30 31 Pd 4.2365 -3.8761 -0.3834 0
M  V30 32 Pb 3.7945 -4.6617 -0.8152 0
M  V30 33 Pb 4.8495 -3.7965 -1.1679 0
M  V30 34 Pb 4.6302 -3.0244 0.0090 0
M  V30 35 Pb 3.6146 -3.9412 0.3884 0
M  V30 36 Pd -5.5219 1.0193 -0.2251 0
M  V30 37 Pb -5.2973 1.9693 -0.0017 0
M  V30 38 Pb -5.7214 0.0623 -0.4614 0
M  V30 39 Pb -6.2451 1.0861 0.4638 0
M  V30 40 Pb -4.7905 0.9740 -0.9007 0
M  V30 41 Pd -4.0000 -3.8101 1.5333 0
M  V30 42 Pb -4.9001 -3.8839 1.9548 0
M  V30 43 Pb -3.0716 -3.7536 1.1612 0
M  V30 44 Pb -4.4403 -3.5730 0.6665 0
M  V30 45 Pb -3.6218 -3.8972 2.4579 0
M  V30 46 Ag -5.0851 1.2765 6.7885 0
M  V30 47 Fe -3.6599 2.5809 5.4043 0
M  V30 48 Ag -2.2594 3.8289 3.9448 0
M  V30 49 Ag 2.6885 4.5087 -2.3516 0
M  V30 50 Fe 0.9385 4.5166 -0.7464 0
M  V30 51 Ag -0.8426 4.5553 0.8238 0
M  V30 52 Ag -4.8898 -1.2610 6.8555 0
M  V30 53 Fe -3.9963 -2.6716 5.1629 0
M  V30 54 Ag -3.4253 -3.8598 3.1838 0
M  V30 55 Ag -7.0359 -1.4566 6.0787 0
M  V30 56 Fe -6.5121 -2.8361 4.2279 0
M  V30 57 Ag -5.5261 -3.9050 2.3598 0
M  V30 58 Ag 2.6292 0.3410 2.8527 0
M  V30 59 Fe 2.6046 -1.9292 2.2213 0
M  V30 60 Ag 3.1684 -3.8452 0.9710 0
M  V30 61 Ag -7.2646 0.7978 5.7006 0
M  V30 62 Fe -7.1671 1.0954 3.3479 0
M  V30 63 Ag -6.7383 1.2142 1.0159 0
M  V30 64 Ag 0.5321 -3.2806 -4.5562 0
M  V30 65 Fe 2.1585 -2.0205 -5.7419 0
M  V30 66 Ag 3.8603 -0.6763 -6.7094 0
M  V30 67 Ag -0.8956 -2.0331 -3.0552 0
M  V30 68 Fe -2.5588 -0.5400 -2.2615 0
M  V30 69 Ag -4.2461 0.8899 -1.4049 0
M  V30 70 Ag 5.9501 -1.0024 -5.5992 0
M  V30 71 Fe 5.7186 -2.4286 -3.7180 0
M  V30 72 Ag 5.2871 -3.7101 -1.7690 0
M  V30 73 Ba 0.9254 -4.9924 -2.7165 0
M  V30 74 Ga 2.1787 -5.1569 -1.9572 0
M  V30 75 Ba 3.4268 -5.2077 -1.1735 0
M  V30 76 Ba -3.1198 4.2846 1.5935 0
M  V30 77 Ga -4.1202 3.4520 0.8944 0
M  V30 78 Ba -5.1634 2.6852 0.1829 0
M  V30 79 Ba 3.7048 3.9270 -4.5491 0
M  V30 80 Ga 3.9377 2.9115 -5.5944 0
M  V30 81 Ba 4.2270 1.8428 -6.5701 0
M  V30 82 Ba 4.5817 0.3290 1.4516 0
M  V30 83 Ga 4.6716 -1.0415 0.8605 0
M  V30 84 Ba 4.9617 -2.3835 0.2679 0
M  V30 85 Ba 5.8329 3.5400 -3.5360 0
M  V30 86 Ga 6.1489 2.5081 -4.5403 0
M  V30 87 Ba 6.3597 1.4534 -5.5485 0
M  V30 88 Ba 4.5504 2.8316 1.3639 0
M  V30 89 Ga 4.7162 3.4581 0.0356 0
M  V30 90 Ba 4.9278 4.1205 -1.2685 0
M  V30 91 Ba -5.8103 -0.6481 -0.7049 0
M  V30 92 Ga -5.3267 -1.9937 -0.3194 0
M  V30 93 Ba -4.8410 -3.3356 0.0765 0
M  V30 94 Ba -0.3699 -3.6359 -1.2118 0
M  V30 95 Ga -1.4251 -3.6831 -0.1797 0
M  V30 96 Ba -2.3433 -3.7310 0.9758 0
M  V30 97 Ba 2.6760 2.8848 2.9655 0
M  V30 98 Ga 1.3378 3.5070 3.0124 0
M  V30 99 Ba 0.0282 4.1804 3.1218 0
M  V30 END ATOM
M  V30 BEGIN BOND
M  V30 1 1 1 2
M  V30 2 1 1 3
M  V30 3 1 1 4
M  V30 4 1 1 5
M  V30 5 1 6 7
M  V30 6 1 6 8
M  V30 7 1 6 9
M  V30 8 1 6 10
M  V30 9 1 11 12
M  V30 10 1 11 13
M  V30 11 1 11 14
M  V30 12 1 11 15
M  V30 13 1 16 17
M  V30 14 1 16 18
M  V30 15 1 16 19
M  V30 16 1 16 20
M  V30 17 1 21 22
M  V30 18 1 21 23
M  V30 19 1 21 24
M  V30 20 1 21 25
M  V30 21 1 26 27
M  V30 22 1 26 28
M  V30 23 1 26 29
M  V30 24 1 26 30
M  V30 25 1 31 32
M  V30 26 1 31 33
M  V30 27 1 31 34
M  V30 28 1 31 35
M  V30 29 1 36 37
M  V30 30 1 36 38
M  V30 31 1 36 39
M  V30 32 1 36 40
M  V30 33 1 41 42
M  V30 34 1 41 43
M  V30 35 1 41 44
M  V30 36 1 41 45
M  V30 37 1 46 47
M  V30 38 1 47 48
M  V30 39 1 49 50
M  V30 40 1 50 51
M  V30 41 1 52 53
M  V30 42 1 53 54
M  V30 43 1 55 56
M  V30 44 1 56 57
M  V30 45 1 58 59
M  V30 46 1 59 60
M  V30 47 1 61 62
M  V30 48 1 62 63
M  V30 49 1 64 65
M  V30 50 1 65 66
M  V30 51 1 67 68
M  V30 52 1 68 69
M  V30 53 1 70 71
M  V30 54 1 71 72
M  V30 55 1 73 74
M  V30 56 1 74 75
M  V30 57 1 76 77
M  V30 58 1 77 78
M  V30 59 1 79 80
M  V30 60 1 80 81
M  V30 61 1 82 83
M  V30 62 1 83 84
M  V30 63 1 85 86
M  V30 64 1 86 87
M  V30 65 1 88 89
M  V30 66 1 89 90
M  V30 67 1 91 92
M  V30 68 1 92 93
M  V30 69 1 94 95
M  V30 70 1 95 96
M  V30 71 1 97 98
M  V30 72 1 98 99
M  V30 73 1 2 73
M  V30 74 1 3 94
M  V30 75 1 4 64
M  V30 76 1 5 67
M  V30 77 1 7 46
M  V30 78 1 8 55
M  V30 79 1 9 61
M  V30 80 1 10 52
M  V30 81 1 12 58
M  V30 82 1 13 97
M  V30 83 1 14 88
M  V30 84 1 15 82
M  V30 85 1 17 90
M  V30 86 1 18 79
M  V30 87 1 19 49
M  V30 88 1 20 85
M  V30 89 1 22 48
M  V30 90 1 23 99
M  V30 91 1 24 51
M  V30 92 1 25 76
M  V30 93 1 27 81
M  V30 94 1 28 70
M  V30 95 1 29 66
M  V30 96 1 30 87
M  V30 97 1 32 75
M  V30 98 1 33 72
M  V30 99 1 34 84
M  V30 100 1 35 60
M  V30 101 1 37 78
M  V30 102 1 38 91
M  V30 103 1 39 63
M  V30 104 1 40 69
M  V30 105 1 42 57
M  V30 106 1 43 96
M  V30 107 1 44 93
M  V30 108 1 45 54
M  V30 END BOND
M  V30 END CTAB
M  END

$$$$
