
     RDKit          3D

  0  0  0  0  0  0  0  0  0  0999 V3000
M  V30 BEGIN CTAB
M  V30 COUNTS 99 108 0 0 0
M  V30 BEGIN ATOM
M  V30 1 Pd -3.2500 2.9249 -3.5311 0
M  V30 2 Pb -3.7301 2.7071 -2.6838 0
M  V30 3 Pb -2.8529 3.2184 -4.4079 0
M  V30 4 Pb -2.6930 3.6181 -3.0648 0
M  V30 5 Pb -3.8238 2.2205 -3.9583 0
M  V30 6 Pd 3.8217 -0.5608 -2.9293 0
M  V30 7 Pb 3.6662 -0.6372 -1.9452 0
M  V30 8 Pb 3.8774 -0.4097 -3.9284 0
M  V30 9 Pb 3.3657 -1.4368 -3.0764 0
M  V30 10 Pb 4.2133 0.3461 -2.7985 0
M  V30 11 Pd 0.1020 -3.6594 6.1479 0
M  V30 12 Pb -0.8183 -3.6570 5.7633 0
M  V30 13 Pb 0.3111 -4.5042 5.6520 0
M  V30 14 Pb 1.0294 -3.6047 6.5191 0
M  V30 15 Pb -0.1259 -2.7779 6.5660 0
M  V30 16 Pd 4.0398 -0.8524 4.3993 0
M  V30 17 Pb 4.0095 -1.3920 5.2406 0
M  V30 18 Pb 3.4489 -0.1490 4.7883 0
M  V30 19 Pb 4.5616 -1.5873 3.9720 0
M  V30 20 Pb 3.9985 -0.3402 3.5379 0
M  V30 21 Pd 1.7766 -3.8610 1.4623 0
M  V30 22 Pb 2.0744 -2.9796 1.0925 0
M  V30 23 Pb 1.5054 -4.6836 1.9620 0
M  V30 24 Pb 2.7297 -4.0195 1.7142 0
M  V30 25 Pb 0.8210 -3.6841 1.2112 0
M  V30 26 Pd -0.4793 4.0701 1.3904 0
M  V30 27 Pb -0.2216 3.7459 2.2998 0
M  V30 28 Pb -1.2768 4.5133 1.7993 0
M  V30 29 Pb -0.7117 4.4198 0.4773 0
M  V30 30 Pb 0.3358 3.5974 1.0503 0
M  V30 31 Pd -4.1495 1.7644 4.0722 0
M  V30 32 Pb -4.6421 1.8060 3.2083 0
M  V30 33 Pb -3.9932 2.7492 3.9931 0
M  V30 34 Pb -3.5832 1.6742 4.8924 0
M  V30 35 Pb -4.2699 0.7742 4.1080 0
M  V30 36 Pd -3.0174 -2.4492 -4.1298 0
M  V30 37 Pb -3.1146 -2.5604 -3.1409 0
M  V30 38 Pb -2.8292 -2.2907 -5.0944 0
M  V30 39 Pb -2.1909 -3.0043 -4.0651 0
M  V30 40 Pb -3.7744 -1.7985 -4.2103 0
M  V30 41 Pd 1.1862 2.4832 -6.9303 0
M  V30 42 Pb 1.9668 1.8447 -6.8415 0
M  V30 43 Pb 0.3689 3.0599 -6.9186 0
M  V30 44 Pb 0.6431 1.7644 -7.3557 0
M  V30 45 Pb 1.7304 3.1776 -6.4671 0
M  V30 46 Ag -4.1592 2.5532 -2.0902 0
M  V30 47 Fe -4.5603 2.1953 0.2197 0
M  V30 48 Ag -4.9524 1.8373 2.5312 0
M  V30 49 Ag 0.1027 -3.5537 1.0242 0
M  V30 50 Fe -1.5399 -3.1046 -0.6354 0
M  V30 51 Ag -3.0718 -2.6590 -2.3982 0
M  V30 52 Ag 2.9643 0.3841 4.9876 0
M  V30 53 Fe 1.4550 1.9797 4.0898 0
M  V30 54 Ag 0.0160 3.4939 2.9640 0
M  V30 55 Ag -0.3461 -2.1002 6.8065 0
M  V30 56 Fe -1.7021 -0.2259 6.2601 0
M  V30 57 Ag -3.1310 1.4997 5.4662 0
M  V30 58 Ag 4.3829 1.0684 -2.8300 0
M  V30 59 Fe 3.5460 2.7407 -4.2672 0
M  V30 60 Ag 2.2010 3.5481 -6.0283 0
M  V30 61 Ag -1.5038 -3.5603 5.4821 0
M  V30 62 Fe -3.0110 -1.8700 4.7781 0
M  V30 63 Ag -4.2879 0.0280 4.1521 0
M  V30 64 Ag 3.8951 0.0597 2.9081 0
M  V30 65 Fe 2.4948 1.6346 1.8053 0
M  V30 66 Ag 0.9617 3.2095 0.8966 0
M  V30 67 Ag 2.9625 -2.0556 -3.1960 0
M  V30 68 Fe 0.7642 -2.8477 -3.6048 0
M  V30 69 Ag -1.5239 -3.3347 -3.9975 0
M  V30 70 Ag -2.6211 -2.0947 -5.7821 0
M  V30 71 Fe -1.2454 -0.5083 -6.8777 0
M  V30 72 Ag 0.2118 1.2105 -7.6074 0
M  V30 73 Ba 3.5046 -0.6305 -1.2135 0
M  V30 74 Ga 2.9195 -1.5203 -0.1917 0
M  V30 75 Ba 2.3497 -2.3011 0.9232 0
M  V30 76 Ba 4.8792 -2.1774 3.6414 0
M  V30 77 Ga 4.2390 -3.1714 2.7662 0
M  V30 78 Ba 3.4495 -4.0716 1.9116 0
M  V30 79 Ba 3.9145 -0.2736 -4.6774 0
M  V30 80 Ga 3.2040 0.5537 -5.6945 0
M  V30 81 Ba 2.5440 1.3518 -6.7673 0
M  V30 82 Ba 1.7232 -3.5136 6.7903 0
M  V30 83 Ga 2.8612 -2.6861 6.3463 0
M  V30 84 Ba 3.9567 -1.8350 5.8436 0
M  V30 85 Ba -2.2770 4.1537 -2.7352 0
M  V30 86 Ga -1.5846 4.3902 -1.4480 0
M  V30 87 Ba -0.8620 4.7205 -0.1986 0
M  V30 88 Ba -4.2979 1.6852 -4.1988 0
M  V30 89 Ga -4.2953 0.2070 -4.2705 0
M  V30 90 Ba -4.2935 -1.2711 -4.3446 0
M  V30 91 Ba -2.5971 3.5138 -5.0555 0
M  V30 92 Ga -1.4230 3.4592 -5.9547 0
M  V30 93 Ba -0.2758 3.4436 -6.8898 0
M  V30 94 Ba -1.8561 4.8080 2.1737 0
M  V30 95 Ga -2.8858 4.1825 3.0256 0
M  V30 96 Ba -3.8794 3.4788 3.8592 0
M  V30 97 Ba 0.4422 -5.1098 5.2260 0
M  V30 98 Ga 0.8794 -5.2393 3.8213 0
M  V30 99 Ba 1.3228 -5.2549 2.4127 0
M  V30 END ATOM
M  V30 BEGIN BOND
M  V30 1 1 1 2
M  V30 2 1 1 3
M  V30 3 1 1 4
M  V30 4 1 1 5
M  V30 5 1 6 7
M  V30 6 1 6 8
M  V30 7 1 6 9
M  V30 8 1 6 10
M  V30 9 1 11 12
M  V30 10 1 11 13
M  V30 11 1 11 14
M  V30 12 1 11 15
M  V30 13 1 16 17
M  V30 14 1 16 18
M  V30 15 1 16 19
M  V30 16 1 16 20
M  V30 17 1 21 22
M  V30 18 1 21 23
M  V30 19 1 21 24
M  V30 20 1 21 25
M  V30 21 1 26 27
M  V30 22 1 26 28
M  V30 23 1 26 29
M  V30 24 1 26 30
M  V30 25 1 31 32
M  V30 26 1 31 33
M  V30 27 1 31 34
M  V30 28 1 31 35
M  V30 29 1 36 37
M  V30 30 1 36 38
M  V30 31 1 36 39
M  V30 32 1 36 40
M  V30 33 1 41 42
M  V30 34 1 41 43
M  V30 35 1 41 44
M  V30 36 1 41 45
M  V30 37 1 46 47
M  V30 38 1 47 48
M  V30 39 1 49 50
M  V30 40 1 50 51
M  V30 41 1 52 53
M  V30 42 1 53 54
M  V30 43 1 55 56
M  V30 44 1 56 57
M  V30 45 1 58 59
M  V30 46 1 59 60
M  V30 47 1 61 62
M  V30 48 1 62 63
M  V30 49 1 64 65
M  V30 50 1 65 66
M  V30 51 1 67 68
M  V30 52 1 68 69
M  V30 53 1 70 71
M  V30 54 1 71 72
M  V30 55 1 73 74
M  V30 56 1 74 75
M  V30 57 1 76 77
M  V30 58 1 77 78
M  V30 59 1 79 80
M  V30 60 1 80 81
M  V30 61 1 82 83
M  V30 62 1 83 84
M  V30 63 1 85 86
M  V30 64 1 86 87
M  V30 65 1 88 89
M  V30 66 1 89 90
M  V30 67 1 91 92
M  V30 68 1 92 93
M  V30 69 1 94 95
M  V30 70 1 95 96
M  V30 71 1 97 98
M  V30 72 1 98 99
M  V30 73 1 2 46
M  V30 74 1 3 91
M  V30 75 1 4 85
M  V30 76 1 5 88
M  V30 77 1 7 73
M  V30 78 1 8 79
M  V30 79 1 9 67
M  V30 80 1 10 58
M  V30 81 1 12 61
M  V30 82 1 13 97
M  V30 83 1 14 82
M  V30 84 1 15 55
M  V30 85 1 17 84
M  V30 86 1 18 52
M  V30 87 1 19 76
M  V30 88 1 20 64
M  V30 89 1 22 75
M  V30 90 1 23 99
M  V30 91 1 24 78
M  V30 92 1 25 49
M  V30 93 1 27 54
M  V30 94 1 28 94
M  V30 95 1 29 87
M  V30 96 1 30 66
M  V30 97 1 32 48
M  V30 98 1 33 96
M  V30 99 1 34 57
M  V30 100 1 35 63
M  V30 101 1 37 51
M  V30 102 1 38 70
M  V30 103 1 39 69
M  V30 104 1 40 90
M  V30 105 1 42 81
M  V30 106 1 43 93
M  V30 107 1 44 72
M  V30 108 1 45 60
M  V30 END BOND
M  V30 END CTAB
M  END

$$$$
