
     RDKit          3D

  0  0  0  0  0  0  0  0  0  0999 V3000
M  V30 BEGIN CTAB
M  V30 COUNTS 99 108 0 0 0
M  V30 BEGIN ATOM
M  V30 1 Pd -0.6985 3.8153 -5.9128 0
M  V30 2 Pb -0.9371 2.9599 -6.3728 0
M  V30 3 Pb -0.3241 4.2036 -6.7544 0
M  V30 4 Pb -0.3830 4.6489 -5.4571 0
M  V30 5 Pb -0.9697 3.4047 -5.0427 0
M  V30 6 Pd 5.5553 6.1530 -6.2100 0
M  V30 7 Pb 6.0190 5.3711 -6.6195 0
M  V30 8 Pb 4.9142 6.7553 -5.7394 0
M  V30 9 Pb 4.9885 6.2552 -7.0254 0
M  V30 10 Pb 5.9866 5.9029 -5.3443 0
M  V30 11 Pd -5.3890 0.2703 1.8185 0
M  V30 12 Pb -5.6892 -0.5570 1.3457 0
M  V30 13 Pb -4.9286 1.0429 2.2518 0
M  V30 14 Pb -5.7517 -0.0387 2.7001 0
M  V30 15 Pb -5.0524 0.5848 0.9334 0
M  V30 16 Pd -4.1224 -3.6901 8.0589 0
M  V30 17 Pb -3.2749 -4.1909 8.2847 0
M  V30 18 Pb -4.2839 -4.2962 7.2822 0
M  V30 19 Pb -3.9131 -3.0578 8.8010 0
M  V30 20 Pb -4.8770 -3.1231 7.7329 0
M  V30 21 Pd -0.5277 -0.9718 -3.9644 0
M  V30 22 Pb -0.3349 -1.2295 -3.0173 0
M  V30 23 Pb 0.2775 -1.4838 -4.2710 0
M  V30 24 Pb -1.2989 -0.4297 -3.6379 0
M  V30 25 Pb -0.7341 -0.6846 -4.9005 0
M  V30 26 Pd 4.7246 -0.1120 -3.3793 0
M  V30 27 Pb 5.1053 0.1693 -4.2613 0
M  V30 28 Pb 4.3850 -0.3886 -2.4797 0
M  V30 29 Pb 5.2121 0.6713 -2.9911 0
M  V30 30 Pb 4.2032 -0.8549 -3.8047 0
M  V30 31 Pd -2.3543 -3.8256 0.9238 0
M  V30 32 Pb -1.7643 -3.2259 0.3762 0
M  V30 33 Pb -1.5269 -4.1249 1.4010 0
M  V30 34 Pb -3.2154 -3.5226 0.5056 0
M  V30 35 Pb -2.8951 -4.3944 1.5406 0
M  V30 36 Pd 1.4308 1.3563 1.2303 0
M  V30 37 Pb 1.9542 1.2186 2.0716 0
M  V30 38 Pb 0.7626 1.9166 1.7199 0
M  V30 39 Pb 0.8540 1.4625 0.4181 0
M  V30 40 Pb 2.0459 0.7126 0.7699 0
M  V30 41 Pd 1.4120 -2.9086 7.3620 0
M  V30 42 Pb 1.2569 -2.3620 8.1813 0
M  V30 43 Pb 0.7772 -3.6003 7.7394 0
M  V30 44 Pb 1.4819 -3.4276 6.5099 0
M  V30 45 Pb 1.9720 -2.1871 6.9551 0
M  V30 46 Ag -6.0271 -0.2559 3.3654 0
M  V30 47 Fe -5.7756 -1.4507 5.4036 0
M  V30 48 Ag -5.3843 -2.6898 7.3925 0
M  V30 49 Ag 2.3211 1.0749 2.7102 0
M  V30 50 Fe 2.4067 -0.2413 4.6853 0
M  V30 51 Ag 2.3448 -1.6391 6.6045 0
M  V30 52 Ag 6.2233 5.5828 -4.7096 0
M  V30 53 Fe 6.0111 3.4998 -3.5888 0
M  V30 54 Ag 5.5669 1.3044 -2.7984 0
M  V30 55 Ag 0.0625 4.5275 -7.3084 0
M  V30 56 Fe 2.2157 5.4539 -7.6778 0
M  V30 57 Ag 4.4506 6.2395 -7.5447 0
M  V30 58 Ag -0.9185 -4.3307 1.7901 0
M  V30 59 Fe 0.3348 -4.1077 3.7959 0
M  V30 60 Ag 1.4826 -3.7858 5.8508 0
M  V30 61 Ag -3.5791 -2.6095 9.2909 0
M  V30 62 Fe -1.3066 -1.9924 9.4452 0
M  V30 63 Ag 0.9507 -2.0073 8.7579 0
M  V30 64 Ag -0.0539 5.2652 -5.1823 0
M  V30 65 Fe 2.0516 6.3618 -5.1569 0
M  V30 66 Ag 4.3098 7.0475 -5.4105 0
M  V30 67 Ag -1.1254 3.0632 -4.3936 0
M  V30 68 Fe -0.3608 2.3200 -2.2700 0
M  V30 69 Ag 0.3559 1.5541 -0.1379 0
M  V30 70 Ag 6.2390 4.6861 -6.8217 0
M  V30 71 Fe 5.9450 2.4771 -6.0039 0
M  V30 72 Ag 5.4329 0.4520 -4.8751 0
M  V30 73 Ag -4.8140 0.7927 0.2559 0
M  V30 74 Fe -3.3507 0.4196 -1.5736 0
M  V30 75 Ag -1.8563 -0.0135 -3.3643 0
M  V30 76 Ag -4.3816 -4.7043 6.6627 0
M  V30 77 Fe -3.8900 -4.8468 4.3460 0
M  V30 78 Ag -3.2743 -4.7826 2.0556 0
M  V30 79 Ag -4.4615 1.5673 2.5100 0
M  V30 80 Fe -2.1492 2.0919 2.4043 0
M  V30 81 Ag 0.1930 2.2656 2.0602 0
M  V30 82 Ba 0.8953 -1.8584 -4.4806 0
M  V30 83 Ga 2.3465 -1.6343 -4.3091 0
M  V30 84 Ba 3.7945 -1.3966 -4.1298 0
M  V30 85 Ba -5.8012 -1.1680 0.9251 0
M  V30 86 Ga -4.8769 -2.2697 0.5793 0
M  V30 87 Ba -3.9087 -3.3437 0.2669 0
M  V30 88 Ba 4.1566 -0.6272 -1.8059 0
M  V30 89 Ga 3.3086 -0.1676 -0.6876 0
M  V30 90 Ba 2.4924 0.1730 0.4949 0
M  V30 91 Ba -0.1807 -1.3827 -2.2993 0
M  V30 92 Ga -0.7739 -2.1155 -1.1610 0
M  V30 93 Ba -1.2269 -2.7934 0.0713 0
M  V30 94 Ba -1.0806 2.2950 -6.6892 0
M  V30 95 Ga -1.0055 0.9163 -6.1681 0
M  V30 96 Ba -0.9110 -0.4368 -5.5868 0
M  V30 97 Ba -2.6208 -4.5489 8.4332 0
M  V30 98 Ga -1.1676 -4.3024 8.2174 0
M  V30 99 Ba 0.2986 -4.1158 8.0317 0
M  V30 END ATOM
M  V30 BEGIN BOND
M  V30 1 1 1 2
M  V30 2 1 1 3
M  V30 3 1 1 4
M  V30 4 1 1 5
M  V30 5 1 6 7
M  V30 6 1 6 8
M  V30 7 1 6 9
M  V30 8 1 6 10
M  V30 9 1 11 12
M  V30 10 1 11 13
M  V30 11 1 11 14
M  V30 12 1 11 15
M  V30 13 1 16 17
M  V30 14 1 16 18
M  V30 15 1 16 19
M  V30 16 1 16 20
M  V30 17 1 21 22
M  V30 18 1 21 23
M  V30 19 1 21 24
M  V30 20 1 21 25
M  V30 21 1 26 27
M  V30 22 1 26 28
M  V30 23 1 26 29
M  V30 24 1 26 30
M  V30 25 1 31 32
M  V30 26 1 31 33
M  V30 27 1 31 34
M  V30 28 1 31 35
M  V30 29 1 36 37
M  V30 30 1 36 38
M  V30 31 1 36 39
M  V30 32 1 36 40
M  V30 33 1 41 42
M  V30 34 1 41 43
M  V30 35 1 41 44
M  V30 36 1 41 45
M  V30 37 1 46 47
M  V30 38 1 47 48
M  V30 39 1 49 50
M  V30 40 1 50 51
M  V30 41 1 52 53
M  V30 42 1 53 54
M  V30 43 1 55 56
M  V30 44 1 56 57
M  V30 45 1 58 59
M  V30 46 1 59 60
M  V30 47 1 61 62
M  V30 48 1 62 63
M  V30 49 1 64 65
M  V30 50 1 65 66
M  V30 51 1 67 68
M  V30 52 1 68 69
M  V30 53 1 70 71
M  V30 54 1 71 72
M  V30 55 1 73 74
M  V30 56 1 74 75
M  V30 57 1 76 77
M  V30 58 1 77 78
M  V30 59 1 79 80
M  V30 60 1 80 81
M  V30 61 1 82 83
M  V30 62 1 83 84
M  V30 63 1 85 86
M  V30 64 1 86 87
M  V30 65 1 88 89
M  V30 66 1 89 90
M  V30 67 1 91 92
M  V30 68 1 92 93
M  V30 69 1 94 95
M  V30 70 1 95 96
M  V30 71 1 97 98
M  V30 72 1 98 99
M  V30 73 1 2 94
M  V30 74 1 3 55
M  V30 75 1 4 64
M  V30 76 1 5 67
M  V30 77 1 7 70
M  V30 78 1 8 66
M  V30 79 1 9 57
M  V30 80 1 10 52
M  V30 81 1 12 85
M  V30 82 1 13 79
M  V30 83 1 14 46
M  V30 84 1 15 73
M  V30 85 1 17 97
M  V30 86 1 18 76
M  V30 87 1 19 61
M  V30 88 1 20 48
M  V30 89 1 22 91
M  V30 90 1 23 82
M  V30 91 1 24 75
M  V30 92 1 25 96
M  V30 93 1 27 72
M  V30 94 1 28 88
M  V30 95 1 29 54
M  V30 96 1 30 84
M  V30 97 1 32 93
M  V30 98 1 33 58
M  V30 99 1 34 87
M  V30 100 1 35 78
M  V30 101 1 37 49
M  V30 102 1 38 81
M  V30 103 1 39 69
M  V30 104 1 40 90
M  V30 105 1 42 63
M  V30 106 1 43 99
M  V30 107 1 44 60
M  V30 108 1 45 51
M  V30 END BOND
M  V30 END CTAB
M  END

$$$$
