
     RDKit          3D

  0  0  0  0  0  0  0  0  0  0999 V3000
M  V30 BEGIN CTAB
M  V30 COUNTS 99 108 0 0 0
M  V30 BEGIN ATOM
M  V30 1 Pd -1.7843 -2.7738 0.9122 0
M  V30 2 Pb -1.5849 -3.6891 0.5654 0
M  V30 3 Pb -1.9625 -1.8506 1.2455 0
M  V30 4 Pb -2.7065 -2.8030 0.5191 0
M  V30 5 Pb -0.8694 -2.7722 1.3223 0
M  V30 6 Pd 0.8132 6.1514 7.1650 0
M  V30 7 Pb 0.9262 6.1599 6.1697 0
M  V30 8 Pb -0.1860 6.2057 7.0582 0
M  V30 9 Pb 1.7315 5.7852 7.2585 0
M  V30 10 Pb 0.6932 6.0817 8.1529 0
M  V30 11 Pd 3.7838 -2.1657 -5.8048 0
M  V30 12 Pb 3.3872 -2.7389 -6.5227 0
M  V30 13 Pb 4.1602 -1.6002 -5.0682 0
M  V30 14 Pb 3.4178 -1.3478 -6.2477 0
M  V30 15 Pb 4.1071 -2.9995 -5.3556 0
M  V30 16 Pd -2.0275 2.4415 -5.3763 0
M  V30 17 Pb -1.2270 2.3372 -5.9638 0
M  V30 18 Pb -2.8029 2.4627 -4.7425 0
M  V30 19 Pb -1.4899 3.0411 -4.7859 0
M  V30 20 Pb -2.5469 1.8212 -5.9597 0
M  V30 21 Pd 3.1294 2.8329 0.3213 0
M  V30 22 Pb 2.7300 3.4719 0.9843 0
M  V30 23 Pb 3.5686 2.2425 -0.3606 0
M  V30 24 Pb 2.6089 3.3078 -0.3871 0
M  V30 25 Pb 3.6325 2.3331 1.0264 0
M  V30 26 Pd -4.6880 -1.6243 -3.8327 0
M  V30 27 Pb -4.8209 -0.6784 -3.5294 0
M  V30 28 Pb -4.5087 -2.5494 -4.1668 0
M  V30 29 Pb -4.8158 -1.9671 -2.8995 0
M  V30 30 Pb -4.5671 -1.2852 -4.7639 0
M  V30 31 Pd 0.9941 -6.2500 -5.0496 0
M  V30 32 Pb 0.7339 -6.5021 -4.1201 0
M  V30 33 Pb 0.0197 -6.2290 -5.2675 0
M  V30 34 Pb 1.9592 -6.1879 -4.7947 0
M  V30 35 Pb 1.2382 -5.9194 -5.9602 0
M  V30 36 Pd 2.0524 -0.4015 4.7017 0
M  V30 37 Pb 2.8363 -0.1327 4.1416 0
M  V30 38 Pb 1.2704 -0.6627 5.2791 0
M  V30 39 Pb 2.3626 0.3084 5.3344 0
M  V30 40 Pb 1.8237 -1.1234 4.0445 0
M  V30 41 Pd -2.3533 1.9271 6.9175 0
M  V30 42 Pb -2.5375 2.9235 6.8851 0
M  V30 43 Pb -2.4239 1.8701 5.9249 0
M  V30 44 Pb -2.0383 0.9763 6.9304 0
M  V30 45 Pb -2.2813 1.9873 7.9108 0
M  V30 46 Ag 1.0073 6.1436 5.4224 0
M  V30 47 Fe 1.7370 5.0284 3.4527 0
M  V30 48 Ag 2.4257 4.0084 1.4178 0
M  V30 49 Ag -1.3854 -4.3591 0.2969 0
M  V30 50 Fe -0.4572 -5.5766 -1.5160 0
M  V30 51 Ag 0.4829 -6.6239 -3.4264 0
M  V30 52 Ag -1.0514 3.4694 -4.3562 0
M  V30 53 Fe 0.5702 3.5948 -2.6273 0
M  V30 54 Ag 2.1905 3.6670 -0.8941 0
M  V30 55 Ag 0.5053 5.8603 8.8357 0
M  V30 56 Fe -0.8446 4.0037 9.3572 0
M  V30 57 Ag -2.1401 2.1844 8.6126 0
M  V30 58 Ag 3.1062 -0.7435 -6.5629 0
M  V30 59 Fe 1.2886 0.7828 -6.5369 0
M  V30 60 Ag -0.6017 2.2067 -6.3538 0
M  V30 61 Ag 2.3035 5.3117 7.2975 0
M  V30 62 Fe 2.6484 3.0798 6.5718 0
M  V30 63 Ag 2.6809 0.8609 5.7315 0
M  V30 64 Ag -2.0983 -1.1586 1.4931 0
M  V30 65 Fe -2.2923 0.3506 3.3122 0
M  V30 66 Ag -2.4679 1.7973 5.1831 0
M  V30 67 Ag -4.3294 -3.2194 -4.4517 0
M  V30 68 Fe -2.5885 -4.7562 -4.9460 0
M  V30 69 Ag -0.7207 -6.1627 -5.3572 0
M  V30 70 Ag 4.4402 -1.1766 -4.5135 0
M  V30 71 Fe 4.1424 0.3186 -2.6886 0
M  V30 72 Ag 3.9484 1.8152 -0.8510 0
M  V30 73 Ba 4.0237 1.9190 1.5148 0
M  V30 74 Ga 3.7143 1.0139 2.6383 0
M  V30 75 Ba 3.4418 0.1022 3.7659 0
M  V30 76 Ba -3.3795 2.4154 -4.2623 0
M  V30 77 Ga -4.1584 1.2555 -3.7793 0
M  V30 78 Ba -4.8910 0.0475 -3.3439 0
M  V30 79 Ba 4.3043 -3.6501 -5.0368 0
M  V30 80 Ga 3.5350 -4.8878 -4.8034 0
M  V30 81 Ba 2.6792 -6.0754 -4.6165 0
M  V30 82 Ba -0.9364 6.1208 6.9835 0
M  V30 83 Ga -1.7980 4.9047 6.9211 0
M  V30 84 Ba -2.6468 3.6795 6.8603 0
M  V30 85 Ba 3.0790 -3.1971 -7.0308 0
M  V30 86 Ga 2.2601 -4.4139 -6.8772 0
M  V30 87 Ba 1.4496 -5.6169 -6.6121 0
M  V30 88 Ba -2.9440 1.3334 -6.3632 0
M  V30 89 Ga -3.7178 0.1509 -5.9533 0
M  V30 90 Ba -4.4667 -1.0131 -5.4537 0
M  V30 91 Ba -3.4109 -2.8335 0.2553 0
M  V30 92 Ga -4.1392 -2.5201 -0.9924 0
M  V30 93 Ba -4.9340 -2.2307 -2.2048 0
M  V30 94 Ba -0.1775 -2.8400 1.6100 0
M  V30 95 Ga 0.7230 -2.2053 2.5953 0
M  V30 96 Ba 1.7254 -1.6770 3.5443 0
M  V30 97 Ba 0.6857 -0.8888 5.7023 0
M  V30 98 Ga -0.5298 -0.2966 6.3070 0
M  V30 99 Ba -1.7486 0.2823 6.9176 0
M  V30 END ATOM
M  V30 BEGIN BOND
M  V30 1 1 1 2
M  V30 2 1 1 3
M  V30 3 1 1 4
M  V30 4 1 1 5
M  V30 5 1 6 7
M  V30 6 1 6 8
M  V30 7 1 6 9
M  V30 8 1 6 10
M  V30 9 1 11 12
M  V30 10 1 11 13
M  V30 11 1 11 14
M  V30 12 1 11 15
M  V30 13 1 16 17
M  V30 14 1 16 18
M  V30 15 1 16 19
M  V30 16 1 16 20
M  V30 17 1 21 22
M  V30 18 1 21 23
M  V30 19 1 21 24
M  V30 20 1 21 25
M  V30 21 1 26 27
M  V30 22 1 26 28
M  V30 23 1 26 29
M  V30 24 1 26 30
M  V30 25 1 31 32
M  V30 26 1 31 33
M  V30 27 1 31 34
M  V30 28 1 31 35
M  V30 29 1 36 37
M  V30 30 1 36 38
M  V30 31 1 36 39
M  V30 32 1 36 40
M  V30 33 1 41 42
M  V30 34 1 41 43
M  V30 35 1 41 44
M  V30 36 1 41 45
M  V30 37 1 46 47
M  V30 38 1 47 48
M  V30 39 1 49 50
M  V30 40 1 50 51
M  V30 41 1 52 53
M  V30 42 1 53 54
M  V30 43 1 55 56
M  V30 44 1 56 57
M  V30 45 1 58 59
M  V30 46 1 59 60
M  V30 47 1 61 62
M  V30 48 1 62 63
M  V30 49 1 64 65
M  V30 50 1 65 66
M  V30 51 1 67 68
M  V30 52 1 68 69
M  V30 53 1 70 71
M  V30 54 1 71 72
M  V30 55 1 73 74
M  V30 56 1 74 75
M  V30 57 1 76 77
M  V30 58 1 77 78
M  V30 59 1 79 80
M  V30 60 1 80 81
M  V30 61 1 82 83
M  V30 62 1 83 84
M  V30 63 1 85 86
M  V30 64 1 86 87
M  V30 65 1 88 89
M  V30 66 1 89 90
M  V30 67 1 91 92
M  V30 68 1 92 93
M  V30 69 1 94 95
M  V30 70 1 95 96
M  V30 71 1 97 98
M  V30 72 1 98 99
M  V30 73 1 2 49
M  V30 74 1 3 64
M  V30 75 1 4 91
M  V30 76 1 5 94
M  V30 77 1 7 46
M  V30 78 1 8 82
M  V30 79 1 9 61
M  V30 80 1 10 55
M  V30 81 1 12 85
M  V30 82 1 13 70
M  V30 83 1 14 58
M  V30 84 1 15 79
M  V30 85 1 17 60
M  V30 86 1 18 76
M  V30 87 1 19 52
M  V30 88 1 20 88
M  V30 89 1 22 48
M  V30 90 1 23 72
M  V30 91 1 24 54
M  V30 92 1 25 73
M  V30 93 1 27 78
M  V30 94 1 28 67
M  V30 95 1 29 93
M  V30 96 1 30 90
M  V30 97 1 32 51
M  V30 98 1 33 69
M  V30 99 1 34 81
M  V30 100 1 35 87
M  V30 101 1 37 75
M  V30 102 1 38 97
M  V30 103 1 39 63
M  V30 104 1 40 96
M  V30 105 1 42 84
M  V30 106 1 43 66
M  V30 107 1 44 99
M  V30 108 1 45 57
M  V30 END BOND
M  V30 END CTAB
M  END

$$$$
