
     RDKit          3D

  0  0  0  0  0  0  0  0  0  0999 V3000
M  V30 BEGIN CTAB
M  V30 COUNTS 99 108 0 0 0
M  V30 BEGIN ATOM
M  V30 1 Pd -0.8121 4.3089 -1.8392 0
M  V30 2 Pb -0.8971 4.0286 -2.7961 0
M  V30 3 Pb -0.7587 4.6144 -0.8854 0
M  V30 4 Pb -0.4279 5.1901 -2.1107 0
M  V30 5 Pb -1.1158 3.3948 -1.5711 0
M  V30 6 Pd 3.1107 6.2625 0.4498 0
M  V30 7 Pb 3.5417 5.8208 1.2323 0
M  V30 8 Pb 2.6640 6.6759 -0.3438 0
M  V30 9 Pb 2.2312 6.2765 0.9204 0
M  V30 10 Pb 3.9471 6.0783 -0.0869 0
M  V30 11 Pd 2.9200 -4.6372 0.9937 0
M  V30 12 Pb 2.3987 -5.2675 0.4249 0
M  V30 13 Pb 3.3734 -3.9271 1.5333 0
M  V30 14 Pb 2.4174 -4.9501 1.7990 0
M  V30 15 Pb 3.3047 -4.2763 0.1461 0
M  V30 16 Pd -4.1511 -4.3908 3.8132 0
M  V30 17 Pb -5.0979 -4.0763 3.7553 0
M  V30 18 Pb -4.2464 -4.8058 2.9061 0
M  V30 19 Pb -4.0782 -3.9165 4.6937 0
M  V30 20 Pb -3.2045 -4.7099 3.8948 0
M  V30 21 Pd 0.8375 0.0581 -4.5736 0
M  V30 22 Pb 0.0165 -0.5207 -4.5245 0
M  V30 23 Pb 1.6425 0.6360 -4.7151 0
M  V30 24 Pb 1.4473 -0.6718 -4.2613 0
M  V30 25 Pb 0.2632 0.8271 -4.8513 0
M  V30 26 Pd 5.3111 1.7179 -1.9016 0
M  V30 27 Pb 5.6059 1.5834 -0.9593 0
M  V30 28 Pb 4.9624 0.7831 -1.9451 0
M  V30 29 Pb 5.5495 2.6986 -1.8159 0
M  V30 30 Pb 4.9727 1.8703 -2.8277 0
M  V30 31 Pd -3.3109 -3.3879 -1.8607 0
M  V30 32 Pb -2.9381 -2.8891 -2.6490 0
M  V30 33 Pb -3.8740 -2.5966 -1.6157 0
M  V30 34 Pb -2.6992 -4.1535 -2.0423 0
M  V30 35 Pb -3.7024 -3.9485 -1.1232 0
M  V30 36 Pd 1.4151 0.0166 0.8654 0
M  V30 37 Pb 0.9546 0.4861 1.6171 0
M  V30 38 Pb 2.1734 -0.2684 1.4524 0
M  V30 39 Pb 0.6203 0.2434 0.2984 0
M  V30 40 Pb 1.8816 -0.4463 0.1104 0
M  V30 41 Pd -5.2296 0.1810 4.1421 0
M  V30 42 Pb -4.9918 -0.2420 5.0149 0
M  V30 43 Pb -6.0093 -0.4356 4.0772 0
M  V30 44 Pb -5.3906 0.4433 3.1923 0
M  V30 45 Pb -4.3883 0.7170 4.1745 0
M  V30 46 Ag 1.9695 -5.1585 2.3631 0
M  V30 47 Fe -0.2501 -5.0763 3.2080 0
M  V30 48 Ag -2.4946 -4.9450 3.9778 0
M  V30 49 Ag 0.5577 0.8428 2.1422 0
M  V30 50 Fe -1.5474 1.0263 3.2220 0
M  V30 51 Ag -3.7181 1.0495 4.1802 0
M  V30 52 Ag -4.2520 -1.9859 -1.3943 0
M  V30 53 Fe -4.9290 -0.6460 0.4467 0
M  V30 54 Ag -5.4771 0.5047 2.4510 0
M  V30 55 Ag 3.9107 5.3737 1.6957 0
M  V30 56 Fe 5.0261 3.3505 1.2318 0
M  V30 57 Ag 5.7319 1.6432 -0.2307 0
M  V30 58 Ag 1.9517 -5.6390 -0.0423 0
M  V30 59 Fe -0.1166 -5.3644 -1.1648 0
M  V30 60 Ag -2.2019 -4.7086 -2.0787 0
M  V30 61 Ag 3.4879 -4.0096 -0.5291 0
M  V30 62 Fe 2.7705 -2.5965 -2.2983 0
M  V30 63 Ag 1.9579 -1.1610 -4.0074 0
M  V30 64 Ba 4.5632 5.8922 -0.4940 0
M  V30 65 Ga 5.1184 4.6520 -1.1092 0
M  V30 66 Ba 5.7145 3.4400 -1.7419 0
M  V30 67 Ba -0.7116 4.8940 -0.1878 0
M  V30 68 Ga 0.3793 5.5546 0.5557 0
M  V30 69 Ba 1.5423 6.1949 1.2005 0
M  V30 70 Ba -4.0619 -3.5095 5.3267 0
M  V30 71 Ga -4.4042 -2.0902 5.5490 0
M  V30 72 Ba -4.7801 -0.6632 5.5970 0
M  V30 73 Ba -0.0811 5.8336 -2.2734 0
M  V30 74 Ga 1.1015 6.4452 -1.6407 0
M  V30 75 Ba 2.2864 6.9563 -0.9280 0
M  V30 76 Ba 2.2379 1.0671 -4.8702 0
M  V30 77 Ga 3.4625 1.5199 -4.1855 0
M  V30 78 Ba 4.6903 1.9798 -3.5113 0
M  V30 79 Ba -1.3090 2.6874 -1.4128 0
M  V30 80 Ga -0.6488 1.5513 -0.7384 0
M  V30 81 Ba -0.0169 0.3944 -0.0723 0
M  V30 82 Ba 4.6255 0.1145 -1.9639 0
M  V30 83 Ga 3.4537 -0.3802 -1.2170 0
M  V30 84 Ba 2.2781 -0.7910 -0.4264 0
M  V30 85 Ba -0.6267 -0.9119 -4.5884 0
M  V30 86 Ga -1.6143 -1.7296 -3.8477 0
M  V30 87 Ba -2.7030 -2.5620 -3.2868 0
M  V30 88 Ba -0.9847 3.8063 -3.5079 0
M  V30 89 Ga -0.5707 2.6229 -4.2850 0
M  V30 90 Ba -0.1426 1.4287 -5.0375 0
M  V30 91 Ba -5.7945 -3.8013 3.7382 0
M  V30 92 Ga -6.2530 -2.4098 3.8639 0
M  V30 93 Ba -6.5229 -0.9713 4.0037 0
M  V30 94 Ba -4.3645 -5.1021 2.2249 0
M  V30 95 Ga -4.1442 -4.7232 0.8110 0
M  V30 96 Ba -3.9802 -4.4544 -0.6352 0
M  V30 97 Ba 3.6600 -3.3490 1.9167 0
M  V30 98 Ga 3.2475 -1.9322 1.9335 0
M  V30 99 Ba 2.7376 -0.5492 1.8598 0
M  V30 END ATOM
M  V30 BEGIN BOND
M  V30 1 1 1 2
M  V30 2 1 1 3
M  V30 3 1 1 4
M  V30 4 1 1 5
M  V30 5 1 6 7
M  V30 6 1 6 8
M  V30 7 1 6 9
M  V30 8 1 6 10
M  V30 9 1 11 12
M  V30 10 1 11 13
M  V30 11 1 11 14
M  V30 12 1 11 15
M  V30 13 1 16 17
M  V30 14 1 16 18
M  V30 15 1 16 19
M  V30 16 1 16 20
M  V30 17 1 21 22
M  V30 18 1 21 23
M  V30 19 1 21 24
M  V30 20 1 21 25
M  V30 21 1 26 27
M  V30 22 1 26 28
M  V30 23 1 26 29
M  V30 24 1 26 30
M  V30 25 1 31 32
M  V30 26 1 31 33
M  V30 27 1 31 34
M  V30 28 1 31 35
M  V30 29 1 36 37
M  V30 30 1 36 38
M  V30 31 1 36 39
M  V30 32 1 36 40
M  V30 33 1 41 42
M  V30 34 1 41 43
M  V30 35 1 41 44
M  V30 36 1 41 45
M  V30 37 1 46 47
M  V30 38 1 47 48
M  V30 39 1 49 50
M  V30 40 1 50 51
M  V30 41 1 52 53
M  V30 42 1 53 54
M  V30 43 1 55 56
M  V30 44 1 56 57
M  V30 45 1 58 59
M  V30 46 1 59 60
M  V30 47 1 61 62
M  V30 48 1 62 63
M  V30 49 1 64 65
M  V30 50 1 65 66
M  V30 51 1 67 68
M  V30 52 1 68 69
M  V30 53 1 70 71
M  V30 54 1 71 72
M  V30 55 1 73 74
M  V30 56 1 74 75
M  V30 57 1 76 77
M  V30 58 1 77 78
M  V30 59 1 79 80
M  V30 60 1 80 81
M  V30 61 1 82 83
M  V30 62 1 83 84
M  V30 63 1 85 86
M  V30 64 1 86 87
M  V30 65 1 88 89
M  V30 66 1 89 90
M  V30 67 1 91 92
M  V30 68 1 92 93
M  V30 69 1 94 95
M  V30 70 1 95 96
M  V30 71 1 97 98
M  V30 72 1 98 99
M  V30 73 1 2 88
M  V30 74 1 3 67
M  V30 75 1 4 73
M  V30 76 1 5 79
M  V30 77 1 7 55
M  V30 78 1 8 75
M  V30 79 1 9 69
M  V30 80 1 10 64
M  V30 81 1 12 58
M  V30 82 1 13 97
M  V30 83 1 14 46
M  V30 84 1 15 61
M  V30 85 1 17 91
M  V30 86 1 18 94
M  V30 87 1 19 70
M  V30 88 1 20 48
M  V30 89 1 22 85
M  V30 90 1 23 76
M  V30 91 1 24 63
M  V30 92 1 25 90
M  V30 93 1 27 57
M  V30 94 1 28 82
M  V30 95 1 29 66
M  V30 96 1 30 78
M  V30 97 1 32 87
M  V30 98 1 33 52
M  V30 99 1 34 60
M  V30 100 1 35 96
M  V30 101 1 37 49
M  V30 102 1 38 99
M  V30 103 1 39 81
M  V30 104 1 40 84
M  V30 105 1 42 72
M  V30 106 1 43 93
M  V30 107 1 44 54
M  V30 108 1 45 51
M  V30 END BOND
M  V30 END CTAB
M  END

$$$$
