
     RDKit          3D

  0  0  0  0  0  0  0  0  0  0999 V3000
M  V30 BEGIN CTAB
M  V30 COUNTS 99 108 0 0 0
M  V30 BEGIN ATOM
M  V30 1 Pd 2.5153 -3.7608 -2.1645 0
M  V30 2 Pb 2.9157 -3.0648 -1.5653 0
M  V30 3 Pb 3.1894 -3.5354 -2.8709 0
M  V30 4 Pb 1.8626 -4.0586 -1.4679 0
M  V30 5 Pb 2.0494 -4.3851 -2.7900 0
M  V30 6 Pd 1.0691 4.3933 -4.9762 0
M  V30 7 Pb 1.0915 4.1999 -3.9961 0
M  V30 8 Pb 1.0827 4.4771 -5.9701 0
M  V30 9 Pb 0.1257 4.0677 -5.0163 0
M  V30 10 Pb 2.0609 4.5206 -5.0011 0
M  V30 11 Pd -0.3781 4.5745 5.3938 0
M  V30 12 Pb 0.0534 4.4028 6.2715 0
M  V30 13 Pb -0.8555 4.7643 4.5335 0
M  V30 14 Pb -1.2671 4.5386 5.8420 0
M  V30 15 Pb 0.5240 4.4467 4.9366 0
M  V30 16 Pd -5.2442 -0.7370 5.2115 0
M  V30 17 Pb -5.1180 0.1264 5.6973 0
M  V30 18 Pb -5.3653 -1.5972 4.7187 0
M  V30 19 Pb -5.6277 -0.2201 4.4464 0
M  V30 20 Pb -4.7790 -1.2454 5.9381 0
M  V30 21 Pd -2.8606 1.9166 1.1219 0
M  V30 22 Pb -1.9544 2.1026 0.7443 0
M  V30 23 Pb -2.8151 2.8335 1.5216 0
M  V30 24 Pb -3.7894 1.7655 1.4705 0
M  V30 25 Pb -2.8836 1.0120 0.6908 0
M  V30 26 Pd -1.7442 -4.3724 4.5144 0
M  V30 27 Pb -2.6971 -4.3954 4.2163 0
M  V30 28 Pb -0.7824 -4.3182 4.7833 0
M  V30 29 Pb -1.4536 -4.6910 3.6141 0
M  V30 30 Pb -2.0533 -4.0124 5.3966 0
M  V30 31 Pd 3.6558 0.5144 4.4292 0
M  V30 32 Pb 3.7330 0.3202 3.4499 0
M  V30 33 Pb 3.6726 -0.4636 4.6262 0
M  V30 34 Pb 3.4659 1.5008 4.2549 0
M  V30 35 Pb 3.6448 0.6932 5.4058 0
M  V30 36 Pd -1.4361 -2.4573 -5.0797 0
M  V30 37 Pb -1.8035 -2.4354 -4.1481 0
M  V30 38 Pb -1.0239 -2.4703 -5.9925 0
M  V30 39 Pb -1.7736 -1.5219 -5.2041 0
M  V30 40 Pb -1.0540 -3.3713 -4.9347 0
M  V30 41 Pd 4.5007 0.0164 -8.4957 0
M  V30 42 Pb 4.0348 0.7373 -9.0028 0
M  V30 43 Pb 4.8769 -0.6723 -7.8775 0
M  V30 44 Pb 3.8238 -0.6437 -8.8161 0
M  V30 45 Pb 5.0229 0.7383 -8.0410 0
M  V30 46 Ag 1.1061 3.9883 -3.2773 0
M  V30 47 Fe -0.0639 3.1486 -1.3896 0
M  V30 48 Ag -1.2924 2.3096 0.4609 0
M  V30 49 Ag 3.2013 -2.4941 -1.1673 0
M  V30 50 Fe 3.4860 -1.2024 0.8075 0
M  V30 51 Ag 3.8393 0.1588 2.7239 0
M  V30 52 Ag -2.9069 0.3368 0.3595 0
M  V30 53 Fe -2.4926 -1.0406 -1.5334 0
M  V30 54 Ag -2.0644 -2.3883 -3.4446 0
M  V30 55 Ag 2.7997 4.4715 -5.1219 0
M  V30 56 Fe 4.2610 3.0308 -6.3183 0
M  V30 57 Ag 5.2574 1.3312 -7.6454 0
M  V30 58 Ag 1.1782 4.4288 -6.7090 0
M  V30 59 Fe 2.3273 3.0154 -8.2239 0
M  V30 60 Ag 3.6360 1.3217 -9.2395 0
M  V30 61 Ag 0.4375 4.1723 6.8590 0
M  V30 62 Fe 2.1259 2.5445 7.0221 0
M  V30 63 Ag 3.5583 0.9225 6.1030 0
M  V30 64 Ag -1.9302 4.3866 6.1480 0
M  V30 65 Fe -3.5629 2.6673 6.1821 0
M  V30 66 Ag -5.0075 0.7937 6.0176 0
M  V30 67 Ag -0.5239 3.7000 -5.0814 0
M  V30 68 Fe -1.3827 1.4868 -5.1779 0
M  V30 69 Ag -2.0016 -0.8064 -5.2479 0
M  V30 70 Ag 1.3636 -4.3672 -1.0001 0
M  V30 71 Fe 0.0902 -4.5847 0.9920 0
M  V30 72 Ag -1.2393 -4.9116 2.9319 0
M  V30 73 Ag -0.6629 -2.5057 -6.6509 0
M  V30 74 Fe 1.2485 -1.8635 -7.9069 0
M  V30 75 Ag 3.2333 -1.0833 -8.9528 0
M  V30 76 Ag 3.7070 -3.4005 -3.3997 0
M  V30 77 Fe 4.4346 -2.3051 -5.3787 0
M  V30 78 Ag 5.0912 -1.1701 -7.3601 0
M  V30 79 Ag -0.0494 -4.2519 4.9290 0
M  V30 80 Fe 1.8395 -2.8142 4.9040 0
M  V30 81 Ag 3.5617 -1.1843 4.7931 0
M  V30 82 Ba -5.8729 0.1916 3.8694 0
M  V30 83 Ga -5.1841 0.9206 2.7844 0
M  V30 84 Ba -4.4986 1.6514 1.6984 0
M  V30 85 Ba -5.4247 -2.2561 4.3684 0
M  V30 86 Ga -4.4499 -3.3403 4.1594 0
M  V30 87 Ba -3.4124 -4.3730 3.9964 0
M  V30 88 Ba 1.2097 4.3338 4.6053 0
M  V30 89 Ga 2.2234 3.2488 4.3933 0
M  V30 90 Ba 3.3016 2.2414 4.1242 0
M  V30 91 Ba -4.3897 -1.6444 6.4423 0
M  V30 92 Ga -3.3553 -2.6869 6.2791 0
M  V30 93 Ba -2.3292 -3.7214 6.0326 0
M  V30 94 Ba 1.6348 -4.8114 -3.2457 0
M  V30 95 Ga 0.4521 -4.4685 -4.0582 0
M  V30 96 Ba -0.7229 -4.0390 -4.8402 0
M  V30 97 Ba -1.2766 4.9328 3.9333 0
M  V30 98 Ga -1.9927 4.2098 2.8618 0
M  V30 99 Ba -2.7271 3.5372 1.7702 0
M  V30 END ATOM
M  V30 BEGIN BOND
M  V30 1 1 1 2
M  V30 2 1 1 3
M  V30 3 1 1 4
M  V30 4 1 1 5
M  V30 5 1 6 7
M  V30 6 1 6 8
M  V30 7 1 6 9
M  V30 8 1 6 10
M  V30 9 1 11 12
M  V30 10 1 11 13
M  V30 11 1 11 14
M  V30 12 1 11 15
M  V30 13 1 16 17
M  V30 14 1 16 18
M  V30 15 1 16 19
M  V30 16 1 16 20
M  V30 17 1 21 22
M  V30 18 1 21 23
M  V30 19 1 21 24
M  V30 20 1 21 25
M  V30 21 1 26 27
M  V30 22 1 26 28
M  V30 23 1 26 29
M  V30 24 1 26 30
M  V30 25 1 31 32
M  V30 26 1 31 33
M  V30 27 1 31 34
M  V30 28 1 31 35
M  V30 29 1 36 37
M  V30 30 1 36 38
M  V30 31 1 36 39
M  V30 32 1 36 40
M  V30 33 1 41 42
M  V30 34 1 41 43
M  V30 35 1 41 44
M  V30 36 1 41 45
M  V30 37 1 46 47
M  V30 38 1 47 48
M  V30 39 1 49 50
M  V30 40 1 50 51
M  V30 41 1 52 53
M  V30 42 1 53 54
M  V30 43 1 55 56
M  V30 44 1 56 57
M  V30 45 1 58 59
M  V30 46 1 59 60
M  V30 47 1 61 62
M  V30 48 1 62 63
M  V30 49 1 64 65
M  V30 50 1 65 66
M  V30 51 1 67 68
M  V30 52 1 68 69
M  V30 53 1 70 71
M  V30 54 1 71 72
M  V30 55 1 73 74
M  V30 56 1 74 75
M  V30 57 1 76 77
M  V30 58 1 77 78
M  V30 59 1 79 80
M  V30 60 1 80 81
M  V30 61 1 82 83
M  V30 62 1 83 84
M  V30 63 1 85 86
M  V30 64 1 86 87
M  V30 65 1 88 89
M  V30 66 1 89 90
M  V30 67 1 91 92
M  V30 68 1 92 93
M  V30 69 1 94 95
M  V30 70 1 95 96
M  V30 71 1 97 98
M  V30 72 1 98 99
M  V30 73 1 2 49
M  V30 74 1 3 76
M  V30 75 1 4 70
M  V30 76 1 5 94
M  V30 77 1 7 46
M  V30 78 1 8 58
M  V30 79 1 9 67
M  V30 80 1 10 55
M  V30 81 1 12 61
M  V30 82 1 13 97
M  V30 83 1 14 64
M  V30 84 1 15 88
M  V30 85 1 17 66
M  V30 86 1 18 85
M  V30 87 1 19 82
M  V30 88 1 20 91
M  V30 89 1 22 48
M  V30 90 1 23 99
M  V30 91 1 24 84
M  V30 92 1 25 52
M  V30 93 1 27 87
M  V30 94 1 28 79
M  V30 95 1 29 72
M  V30 96 1 30 93
M  V30 97 1 32 51
M  V30 98 1 33 81
M  V30 99 1 34 90
M  V30 100 1 35 63
M  V30 101 1 37 54
M  V30 102 1 38 73
M  V30 103 1 39 69
M  V30 104 1 40 96
M  V30 105 1 42 60
M  V30 106 1 43 78
M  V30 107 1 44 75
M  V30 108 1 45 57
M  V30 END BOND
M  V30 END CTAB
M  END

$$$$
