
     RDKit          3D

  0  0  0  0  0  0  0  0  0  0999 V3000
M  V30 BEGIN CTAB
M  V30 COUNTS 99 108 0 0 0
M  V30 BEGIN ATOM
M  V30 1 Pd 1.7753 -2.2924 3.6087 0
M  V30 2 Pb 1.5114 -1.6290 4.3054 0
M  V30 3 Pb 1.7351 -1.5951 2.8933 0
M  V30 4 Pb 1.6929 -2.9976 4.3112 0
M  V30 5 Pb 2.0045 -2.9476 2.8902 0
M  V30 6 Pd 4.3300 4.7662 -3.3542 0
M  V30 7 Pb 3.6090 4.5674 -4.0207 0
M  V30 8 Pb 3.6700 5.0194 -2.6489 0
M  V30 9 Pb 4.9956 4.3640 -3.9729 0
M  V30 10 Pb 5.0563 4.8734 -2.6774 0
M  V30 11 Pd -5.7037 3.1283 -0.8186 0
M  V30 12 Pb -5.2521 3.6381 -0.0895 0
M  V30 13 Pb -5.0084 3.3829 -1.4922 0
M  V30 14 Pb -6.0997 2.5407 -1.5184 0
M  V30 15 Pb -6.3239 2.7776 -0.1133 0
M  V30 16 Pd -3.3079 -3.1265 -2.4982 0
M  V30 17 Pb -4.0057 -2.6079 -2.9850 0
M  V30 18 Pb -3.9262 -3.1926 -1.7169 0
M  V30 19 Pb -2.6671 -3.0097 -3.2563 0
M  V30 20 Pb -2.6313 -3.6116 -1.9439 0
M  V30 21 Pd 0.5175 0.6367 -4.8930 0
M  V30 22 Pb 1.0097 1.4959 -5.0735 0
M  V30 23 Pb -0.2454 1.2205 -4.5990 0
M  V30 24 Pb -0.0051 -0.2194 -4.8351 0
M  V30 25 Pb 1.2729 0.0504 -5.2032 0
M  V30 26 Pd -2.6375 -3.9969 4.7149 0
M  V30 27 Pb -3.4168 -3.8215 4.1171 0
M  V30 28 Pb -3.1494 -3.6315 5.4959 0
M  V30 29 Pb -1.8266 -4.1960 5.2673 0
M  V30 30 Pb -2.1450 -4.3107 3.9011 0
M  V30 31 Pd -4.3562 0.9382 5.8185 0
M  V30 32 Pb -3.4296 0.9383 6.1850 0
M  V30 33 Pb -4.5170 0.0531 6.2625 0
M  V30 34 Pb -5.2369 0.9312 5.3420 0
M  V30 35 Pb -4.1714 1.7962 5.3412 0
M  V30 36 Pd 5.0453 -1.9329 -2.9801 0
M  V30 37 Pb 4.4825 -2.0255 -3.8031 0
M  V30 38 Pb 5.5538 -1.7397 -2.1384 0
M  V30 39 Pb 5.5871 -1.2697 -3.4894 0
M  V30 40 Pb 4.5111 -2.5985 -2.4600 0
M  V30 41 Pd 4.3488 1.9676 0.5138 0
M  V30 42 Pb 3.7406 2.7615 0.4342 0
M  V30 43 Pb 3.5483 1.3857 0.6505 0
M  V30 44 Pb 4.9620 1.1731 0.5183 0
M  V30 45 Pb 5.1197 2.5803 0.3480 0
M  V30 46 Ag 1.2630 -1.1595 4.8313 0
M  V30 47 Fe -0.6490 -0.0642 5.7063 0
M  V30 48 Ag -2.7078 0.9054 6.3713 0
M  V30 49 Ag -4.3415 -3.2230 -1.0951 0
M  V30 50 Fe -4.2775 -3.4575 1.2648 0
M  V30 51 Ag -3.9457 -3.7147 3.5997 0
M  V30 52 Ag -6.7021 2.4937 0.4723 0
M  V30 53 Fe -6.4258 1.7054 2.6988 0
M  V30 54 Ag -5.8330 0.9891 4.8875 0
M  V30 55 Ag -4.9317 3.9211 0.5238 0
M  V30 56 Fe -4.4233 3.3188 2.7615 0
M  V30 57 Ag -4.0649 2.4083 4.9230 0
M  V30 58 Ag -2.1856 -3.9498 -1.4438 0
M  V30 59 Fe -1.8950 -4.2989 0.8887 0
M  V30 60 Ag -1.8140 -4.5044 3.2547 0
M  V30 61 Ag -6.2845 2.0421 -2.0405 0
M  V30 62 Fe -5.5701 -0.0773 -2.8198 0
M  V30 63 Ag -4.5433 -2.1670 -3.2546 0
M  V30 64 Ag 5.4666 3.9185 -4.3344 0
M  V30 65 Fe 5.9015 1.5934 -4.2912 0
M  V30 66 Ag 5.9336 -0.7368 -3.8794 0
M  V30 67 Ag 2.1631 -3.3680 2.2909 0
M  V30 68 Fe 3.1328 -3.3318 0.1242 0
M  V30 69 Ag 4.1510 -3.0729 -2.0049 0
M  V30 70 Ag -4.4783 3.4980 -2.0123 0
M  V30 71 Fe -2.6230 2.5937 -3.1953 0
M  V30 72 Ag -0.7655 1.7330 -4.4070 0
M  V30 73 Ba 3.1016 4.3903 -4.5467 0
M  V30 74 Ga 2.2089 3.2498 -4.8556 0
M  V30 75 Ba 1.2798 2.1746 -5.2712 0
M  V30 76 Ba 1.7743 -0.4587 -5.4490 0
M  V30 77 Ga 2.9275 -1.2265 -4.9270 0
M  V30 78 Ba 4.0854 -2.0111 -4.4416 0
M  V30 79 Ba -2.1922 -2.9150 -3.8283 0
M  V30 80 Ga -1.2734 -1.8617 -4.3101 0
M  V30 81 Ba -0.3210 -0.9016 -4.9063 0
M  V30 82 Ba 5.5857 4.8766 -2.1484 0
M  V30 83 Ga 5.6915 4.0166 -0.9582 0
M  V30 84 Ba 5.6469 3.0844 0.1805 0
M  V30 85 Ba 3.2268 5.1138 -2.0524 0
M  V30 86 Ga 3.2057 4.2822 -0.8320 0
M  V30 87 Ba 3.3010 3.3625 0.3200 0
M  V30 88 Ba 1.5314 -3.4809 4.8604 0
M  V30 89 Ga 0.2042 -3.9615 5.2900 0
M  V30 90 Ba -1.1794 -4.3615 5.6112 0
M  V30 91 Ba 5.8889 -1.5711 -1.4861 0
M  V30 92 Ga 5.6731 -0.4991 -0.4895 0
M  V30 93 Ba 5.4327 0.5851 0.4882 0
M  V30 94 Ba 1.6308 -1.1158 2.3259 0
M  V30 95 Ga 2.3315 -0.0667 1.5629 0
M  V30 96 Ba 2.9129 0.9955 0.7217 0
M  V30 97 Ba -3.5653 -3.3351 6.0492 0
M  V30 98 Ga -4.0829 -1.9784 6.3328 0
M  V30 99 Ba -4.5925 -0.6155 6.6015 0
M  V30 END ATOM
M  V30 BEGIN BOND
M  V30 1 1 1 2
M  V30 2 1 1 3
M  V30 3 1 1 4
M  V30 4 1 1 5
M  V30 5 1 6 7
M  V30 6 1 6 8
M  V30 7 1 6 9
M  V30 8 1 6 10
M  V30 9 1 11 12
M  V30 10 1 11 13
M  V30 11 1 11 14
M  V30 12 1 11 15
M  V30 13 1 16 17
M  V30 14 1 16 18
M  V30 15 1 16 19
M  V30 16 1 16 20
M  V30 17 1 21 22
M  V30 18 1 21 23
M  V30 19 1 21 24
M  V30 20 1 21 25
M  V30 21 1 26 27
M  V30 22 1 26 28
M  V30 23 1 26 29
M  V30 24 1 26 30
M  V30 25 1 31 32
M  V30 26 1 31 33
M  V30 27 1 31 34
M  V30 28 1 31 35
M  V30 29 1 36 37
M  V30 30 1 36 38
M  V30 31 1 36 39
M  V30 32 1 36 40
M  V30 33 1 41 42
M  V30 34 1 41 43
M  V30 35 1 41 44
M  V30 36 1 41 45
M  V30 37 1 46 47
M  V30 38 1 47 48
M  V30 39 1 49 50
M  V30 40 1 50 51
M  V30 41 1 52 53
M  V30 42 1 53 54
M  V30 43 1 55 56
M  V30 44 1 56 57
M  V30 45 1 58 59
M  V30 46 1 59 60
M  V30 47 1 61 62
M  V30 48 1 62 63
M  V30 49 1 64 65
M  V30 50 1 65 66
M  V30 51 1 67 68
M  V30 52 1 68 69
M  V30 53 1 70 71
M  V30 54 1 71 72
M  V30 55 1 73 74
M  V30 56 1 74 75
M  V30 57 1 76 77
M  V30 58 1 77 78
M  V30 59 1 79 80
M  V30 60 1 80 81
M  V30 61 1 82 83
M  V30 62 1 83 84
M  V30 63 1 85 86
M  V30 64 1 86 87
M  V30 65 1 88 89
M  V30 66 1 89 90
M  V30 67 1 91 92
M  V30 68 1 92 93
M  V30 69 1 94 95
M  V30 70 1 95 96
M  V30 71 1 97 98
M  V30 72 1 98 99
M  V30 73 1 2 46
M  V30 74 1 3 94
M  V30 75 1 4 88
M  V30 76 1 5 67
M  V30 77 1 7 73
M  V30 78 1 8 85
M  V30 79 1 9 64
M  V30 80 1 10 82
M  V30 81 1 12 55
M  V30 82 1 13 70
M  V30 83 1 14 61
M  V30 84 1 15 52
M  V30 85 1 17 63
M  V30 86 1 18 49
M  V30 87 1 19 79
M  V30 88 1 20 58
M  V30 89 1 22 75
M  V30 90 1 23 72
M  V30 91 1 24 81
M  V30 92 1 25 76
M  V30 93 1 27 51
M  V30 94 1 28 97
M  V30 95 1 29 90
M  V30 96 1 30 60
M  V30 97 1 32 48
M  V30 98 1 33 99
M  V30 99 1 34 54
M  V30 100 1 35 57
M  V30 101 1 37 78
M  V30 102 1 38 91
M  V30 103 1 39 66
M  V30 104 1 40 69
M  V30 105 1 42 87
M  V30 106 1 43 96
M  V30 107 1 44 93
M  V30 108 1 45 84
M  V30 END BOND
M  V30 END CTAB
M  END

$$$$
