
     RDKit          3D

  0  0  0  0  0  0  0  0  0  0999 V3000
M  V30 BEGIN CTAB
M  V30 COUNTS 99 108 0 0 0
M  V30 BEGIN ATOM
M  V30 1 Pd 9.0167 5.5382 0.7743 0
M  V30 2 Pb 9.6068 5.1666 0.0583 0
M  V30 3 Pb 9.1149 6.4402 0.3498 0
M  V30 4 Pb 8.7547 4.5917 0.9851 0
M  V30 5 Pb 8.3458 5.8862 1.4281 0
M  V30 6 Pd -3.7875 -8.0185 -0.6381 0
M  V30 7 Pb -3.9075 -8.4111 -1.5500 0
M  V30 8 Pb -4.7821 -7.9463 -0.5903 0
M  V30 9 Pb -2.8037 -7.9714 -0.7958 0
M  V30 10 Pb -3.6762 -7.5144 0.2209 0
M  V30 11 Pd -4.1482 -2.6318 1.8243 0
M  V30 12 Pb -3.7811 -2.6890 2.7547 0
M  V30 13 Pb -4.4192 -1.6742 1.9569 0
M  V30 14 Pb -4.5484 -2.5460 0.9084 0
M  V30 15 Pb -3.9354 -3.6157 1.7614 0
M  V30 16 Pd 0.0383 -0.7233 5.0547 0
M  V30 17 Pb 0.5270 -1.2967 4.3985 0
M  V30 18 Pb -0.5044 -0.0547 5.5600 0
M  V30 19 Pb 0.7783 -0.0562 4.9937 0
M  V30 20 Pb -0.7194 -1.3744 5.1058 0
M  V30 21 Pd -6.3684 -4.4062 -5.2751 0
M  V30 22 Pb -7.0393 -4.8566 -4.6887 0
M  V30 23 Pb -5.5722 -4.0011 -5.7222 0
M  V30 24 Pb -6.1469 -5.3035 -5.6489 0
M  V30 25 Pb -6.4551 -3.5913 -4.7084 0
M  V30 26 Pd 0.0533 -2.3467 -2.4596 0
M  V30 27 Pb 0.4684 -2.3073 -1.5475 0
M  V30 28 Pb -0.3921 -2.4278 -3.3535 0
M  V30 29 Pb 0.2830 -3.3183 -2.4518 0
M  V30 30 Pb -0.2674 -1.3985 -2.4319 0
M  V30 31 Pd 1.4517 5.9519 2.1380 0
M  V30 32 Pb 1.7256 5.4760 1.3004 0
M  V30 33 Pb 1.9457 5.2727 2.6765 0
M  V30 34 Pb 2.4019 6.1455 2.3899 0
M  V30 35 Pb 0.5935 6.2073 1.6959 0
M  V30 36 Pd -3.3266 3.3321 1.3852 0
M  V30 37 Pb -3.8424 2.4915 1.5769 0
M  V30 38 Pb -2.8833 4.2117 1.1972 0
M  V30 39 Pb -3.1182 3.0420 0.4520 0
M  V30 40 Pb -3.3942 3.5304 2.3610 0
M  V30 41 Pd 6.8514 3.3897 -2.7127 0
M  V30 42 Pb 5.8627 3.4224 -2.5707 0
M  V30 43 Pb 7.8485 3.4220 -2.7732 0
M  V30 44 Pb 6.9659 2.8167 -1.8957 0
M  V30 45 Pb 6.8143 4.1575 -3.3551 0
M  V30 46 Ag -4.9148 -3.7181 -5.9443 0
M  V30 47 Fe -2.7976 -3.0647 -5.0868 0
M  V30 48 Ag -0.7657 -2.4775 -4.0042 0
M  V30 49 Ag -2.0945 -7.8345 -0.9881 0
M  V30 50 Fe -0.7023 -6.0489 -1.6950 0
M  V30 51 Ag 0.3921 -4.0534 -2.3638 0
M  V30 52 Ag 9.0460 6.9572 -0.1849 0
M  V30 53 Fe 8.0075 6.4714 -2.2517 0
M  V30 54 Ag 6.9276 4.8553 -3.5964 0
M  V30 55 Ag 1.3100 0.4655 4.9266 0
M  V30 56 Fe 1.8809 2.5911 4.0421 0
M  V30 57 Ag 2.2579 4.7257 3.0790 0
M  V30 58 Ag 0.8746 -1.6419 3.8309 0
M  V30 59 Fe 0.8436 -2.0244 1.4849 0
M  V30 60 Ag 0.7797 -2.3773 -0.8651 0
M  V30 61 Ag -4.0451 -8.5857 -2.2656 0
M  V30 62 Fe -4.9486 -7.5426 -4.1945 0
M  V30 63 Ag -5.9154 -6.0091 -5.7228 0
M  V30 64 Ag 1.9044 5.1142 0.6664 0
M  V30 65 Fe 3.5007 4.2872 -0.8866 0
M  V30 66 Ag 5.1323 3.4781 -2.4121 0
M  V30 67 Ag -0.5847 -0.7171 -2.4470 0
M  V30 68 Fe -1.7298 1.0598 -1.3621 0
M  V30 69 Ag -2.8663 2.8005 -0.2115 0
M  V30 70 Ag 7.7987 6.1237 1.8819 0
M  V30 71 Fe 5.4559 6.2265 2.2619 0
M  V30 72 Ag 3.1058 6.3049 2.6010 0
M  V30 73 Ag -4.8833 -2.3693 0.2563 0
M  V30 74 Fe -5.6706 -2.6965 -1.9623 0
M  V30 75 Ag -6.4419 -3.0624 -4.1804 0
M  V30 76 Ag -5.5075 -7.8114 -0.7103 0
M  V30 77 Fe -6.7467 -6.5909 -2.3216 0
M  V30 78 Ag -7.3993 -5.2376 -4.1558 0
M  V30 79 Ag -0.9404 0.5099 5.7842 0
M  V30 80 Fe -2.2509 2.1675 4.7091 0
M  V30 81 Ag -3.3513 3.5253 3.1071 0
M  V30 82 Ba -3.5210 -2.7800 3.4542 0
M  V30 83 Ga -2.4009 -2.2955 4.2851 0
M  V30 84 Ba -1.3013 -1.8449 5.1614 0
M  V30 85 Ba -0.0643 6.3684 1.3764 0
M  V30 86 Ga -1.3240 5.6174 1.2084 0
M  V30 87 Ba -2.5935 4.8858 1.0289 0
M  V30 88 Ba 8.5038 3.8786 1.0088 0
M  V30 89 Ga 7.8036 3.1206 -0.0605 0
M  V30 90 Ba 7.1170 2.5025 -1.2245 0
M  V30 91 Ba -3.5701 -7.1167 0.8506 0
M  V30 92 Ga -3.6955 -5.7050 1.2860 0
M  V30 93 Ba -3.7642 -4.3465 1.8744 0
M  V30 94 Ba 9.9679 4.8580 -0.5214 0
M  V30 95 Ga 9.3702 4.1570 -1.6718 0
M  V30 96 Ba 8.5935 3.4942 -2.7347 0
M  V30 97 Ba -4.7063 -0.9849 2.0590 0
M  V30 98 Ga -4.4072 0.4534 1.8811 0
M  V30 99 Ba -4.2980 1.9258 1.7810 0
M  V30 END ATOM
M  V30 BEGIN BOND
M  V30 1 1 1 2
M  V30 2 1 1 3
M  V30 3 1 1 4
M  V30 4 1 1 5
M  V30 5 1 6 7
M  V30 6 1 6 8
M  V30 7 1 6 9
M  V30 8 1 6 10
M  V30 9 1 11 12
M  V30 10 1 11 13
M  V30 11 1 11 14
M  V30 12 1 11 15
M  V30 13 1 16 17
M  V30 14 1 16 18
M  V30 15 1 16 19
M  V30 16 1 16 20
M  V30 17 1 21 22
M  V30 18 1 21 23
M  V30 19 1 21 24
M  V30 20 1 21 25
M  V30 21 1 26 27
M  V30 22 1 26 28
M  V30 23 1 26 29
M  V30 24 1 26 30
M  V30 25 1 31 32
M  V30 26 1 31 33
M  V30 27 1 31 34
M  V30 28 1 31 35
M  V30 29 1 36 37
M  V30 30 1 36 38
M  V30 31 1 36 39
M  V30 32 1 36 40
M  V30 33 1 41 42
M  V30 34 1 41 43
M  V30 35 1 41 44
M  V30 36 1 41 45
M  V30 37 1 46 47
M  V30 38 1 47 48
M  V30 39 1 49 50
M  V30 40 1 50 51
M  V30 41 1 52 53
M  V30 42 1 53 54
M  V30 43 1 55 56
M  V30 44 1 56 57
M  V30 45 1 58 59
M  V30 46 1 59 60
M  V30 47 1 61 62
M  V30 48 1 62 63
M  V30 49 1 64 65
M  V30 50 1 65 66
M  V30 51 1 67 68
M  V30 52 1 68 69
M  V30 53 1 70 71
M  V30 54 1 71 72
M  V30 55 1 73 74
M  V30 56 1 74 75
M  V30 57 1 76 77
M  V30 58 1 77 78
M  V30 59 1 79 80
M  V30 60 1 80 81
M  V30 61 1 82 83
M  V30 62 1 83 84
M  V30 63 1 85 86
M  V30 64 1 86 87
M  V30 65 1 88 89
M  V30 66 1 89 90
M  V30 67 1 91 92
M  V30 68 1 92 93
M  V30 69 1 94 95
M  V30 70 1 95 96
M  V30 71 1 97 98
M  V30 72 1 98 99
M  V30 73 1 2 94
M  V30 74 1 3 52
M  V30 75 1 4 88
M  V30 76 1 5 70
M  V30 77 1 7 61
M  V30 78 1 8 76
M  V30 79 1 9 49
M  V30 80 1 10 91
M  V30 81 1 12 82
M  V30 82 1 13 97
M  V30 83 1 14 73
M  V30 84 1 15 93
M  V30 85 1 17 58
M  V30 86 1 18 79
M  V30 87 1 19 55
M  V30 88 1 20 84
M  V30 89 1 22 78
M  V30 90 1 23 46
M  V30 91 1 24 63
M  V30 92 1 25 75
M  V30 93 1 27 60
M  V30 94 1 28 48
M  V30 95 1 29 51
M  V30 96 1 30 67
M  V30 97 1 32 64
M  V30 98 1 33 57
M  V30 99 1 34 72
M  V30 100 1 35 85
M  V30 101 1 37 99
M  V30 102 1 38 87
M  V30 103 1 39 69
M  V30 104 1 40 81
M  V30 105 1 42 66
M  V30 106 1 43 96
M  V30 107 1 44 90
M  V30 108 1 45 54
M  V30 END BOND
M  V30 END CTAB
M  END

$$$$
