
     RDKit          3D

  0  0  0  0  0  0  0  0  0  0999 V3000
M  V30 BEGIN CTAB
M  V30 COUNTS 99 108 0 0 0
M  V30 BEGIN ATOM
M  V30 1 Pd -1.3702 3.4493 -2.8259 0
M  V30 2 Pb -1.1611 2.8758 -2.0357 0
M  V30 3 Pb -0.9726 4.2602 -2.3972 0
M  V30 4 Pb -1.6200 4.0235 -3.6078 0
M  V30 5 Pb -1.8275 2.6445 -3.2033 0
M  V30 6 Pd -4.0404 7.3790 -2.2986 0
M  V30 7 Pb -4.9792 7.2742 -2.6146 0
M  V30 8 Pb -3.6946 7.2009 -3.2181 0
M  V30 9 Pb -3.0954 7.3925 -1.9738 0
M  V30 10 Pb -4.3834 7.4014 -1.3474 0
M  V30 11 Pd 3.3994 -1.5588 4.4322 0
M  V30 12 Pb 4.3236 -1.8943 4.2376 0
M  V30 13 Pb 2.4505 -1.2646 4.5421 0
M  V30 14 Pb 3.0735 -2.4935 4.3243 0
M  V30 15 Pb 3.7042 -0.6145 4.5730 0
M  V30 16 Pd 2.2945 -7.7168 -0.1027 0
M  V30 17 Pb 2.3694 -8.1781 -0.9836 0
M  V30 18 Pb 3.2785 -7.8098 0.0428 0
M  V30 19 Pb 1.3705 -7.3856 -0.3519 0
M  V30 20 Pb 2.2074 -7.2847 0.7902 0
M  V30 21 Pd 1.4778 2.4083 2.2640 0
M  V30 22 Pb 2.2434 2.1337 1.6894 0
M  V30 23 Pb 0.6980 2.6644 2.8322 0
M  V30 24 Pb 2.1335 2.5396 3.0049 0
M  V30 25 Pb 0.8321 2.1483 1.5483 0
M  V30 26 Pd -5.9235 3.6549 1.5097 0
M  V30 27 Pb -6.6780 3.7496 0.8658 0
M  V30 28 Pb -6.0287 2.6597 1.5023 0
M  V30 29 Pb -5.7609 4.6513 1.4278 0
M  V30 30 Pb -5.1650 3.5841 2.1573 0
M  V30 31 Pd 5.5278 -3.5809 -0.0971 0
M  V30 32 Pb 5.4407 -2.5885 -0.1044 0
M  V30 33 Pb 5.2820 -3.5357 -1.0721 0
M  V30 34 Pb 5.8054 -3.5315 0.8681 0
M  V30 35 Pb 5.6251 -4.5849 -0.0797 0
M  V30 36 Pd -2.5647 -0.3874 0.1124 0
M  V30 37 Pb -1.5936 -0.5075 -0.1053 0
M  V30 38 Pb -2.3138 -0.4209 1.0800 0
M  V30 39 Pb -2.7822 -0.3073 -0.8635 0
M  V30 40 Pb -3.5300 -0.2883 0.3676 0
M  V30 41 Pd 1.1177 -3.5112 -2.9552 0
M  V30 42 Pb 0.4359 -4.0995 -2.4977 0
M  V30 43 Pb 1.1695 -4.1704 -3.7013 0
M  V30 44 Pb 1.9828 -3.1290 -3.2723 0
M  V30 45 Pb 1.0645 -2.8140 -2.2373 0
M  V30 46 Ag 2.8256 -3.1926 4.2466 0
M  V30 47 Fe 2.4775 -5.0877 2.8668 0
M  V30 48 Ag 2.1427 -6.9666 1.4615 0
M  V30 49 Ag 0.0697 2.8341 3.2016 0
M  V30 50 Fe -2.2652 3.2044 2.9862 0
M  V30 51 Ag -4.5873 3.5510 2.6345 0
M  V30 52 Ag -5.6798 7.0520 -2.7137 0
M  V30 53 Fe -6.8932 5.4799 -1.4440 0
M  V30 54 Ag -7.1498 3.9446 0.3266 0
M  V30 55 Ag 2.8250 1.9026 1.2840 0
M  V30 56 Fe 4.1244 0.0609 0.5511 0
M  V30 57 Ag 5.3573 -1.8472 -0.1248 0
M  V30 58 Ag 2.3629 -8.3673 -1.7000 0
M  V30 59 Fe 1.8526 -6.9387 -3.4941 0
M  V30 60 Ag 1.2615 -4.7589 -4.1427 0
M  V30 61 Ag 1.7240 -1.0808 4.5601 0
M  V30 62 Fe -0.2260 -0.7336 3.2497 0
M  V30 63 Ag -2.0743 -0.4242 1.7909 0
M  V30 64 Ba -0.8536 -0.5946 -0.2110 0
M  V30 65 Ga 0.0668 -1.4504 -0.9887 0
M  V30 66 Ba 1.0575 -2.2612 -1.7274 0
M  V30 67 Ba -4.6456 7.3867 -0.6322 0
M  V30 68 Ga -5.1356 6.3668 0.3394 0
M  V30 69 Ba -5.6360 5.4010 1.3596 0
M  V30 70 Ba -0.7422 4.9020 -2.0859 0
M  V30 71 Ga -1.4967 6.1522 -1.8854 0
M  V30 72 Ba -2.3814 7.3240 -1.7575 0
M  V30 73 Ba 5.1238 -3.3680 -1.7939 0
M  V30 74 Ga 3.9203 -3.1657 -2.6337 0
M  V30 75 Ba 2.6967 -2.9821 -3.4479 0
M  V30 76 Ba 0.7116 -7.0590 -0.5598 0
M  V30 77 Ga 0.3470 -5.8412 -1.3458 0
M  V30 78 Ba 0.0099 -4.6184 -2.1361 0
M  V30 79 Ba -1.8180 4.5002 -4.1543 0
M  V30 80 Ga -2.6040 5.7472 -4.0914 0
M  V30 81 Ba -3.4053 6.9653 -3.8671 0
M  V30 82 Ba -2.1833 2.0123 -3.3939 0
M  V30 83 Ga -2.5707 0.8703 -2.5403 0
M  V30 84 Ba -2.9114 -0.2173 -1.5999 0
M  V30 85 Ba 4.9829 -2.2106 4.0579 0
M  V30 86 Ga 5.5137 -2.8246 2.8187 0
M  V30 87 Ba 6.0432 -3.4398 1.5796 0
M  V30 88 Ba -6.0874 1.9129 1.4501 0
M  V30 89 Ga -5.1642 0.8408 1.0225 0
M  V30 90 Ba -4.2464 -0.2362 0.5951 0
M  V30 91 Ba 3.8752 0.1081 4.6935 0
M  V30 92 Ga 3.3091 1.3583 4.1506 0
M  V30 93 Ba 2.6643 2.5328 3.5324 0
M  V30 94 Ba -1.0672 2.3879 -1.4759 0
M  V30 95 Ga -0.3248 2.2062 -0.2165 0
M  V30 96 Ba 0.3389 1.8746 1.0562 0
M  V30 97 Ba 4.0251 -7.7589 0.1004 0
M  V30 98 Ga 4.8903 -6.5566 0.0434 0
M  V30 99 Ba 5.7271 -5.3345 -0.0203 0
M  V30 END ATOM
M  V30 BEGIN BOND
M  V30 1 1 1 2
M  V30 2 1 1 3
M  V30 3 1 1 4
M  V30 4 1 1 5
M  V30 5 1 6 7
M  V30 6 1 6 8
M  V30 7 1 6 9
M  V30 8 1 6 10
M  V30 9 1 11 12
M  V30 10 1 11 13
M  V30 11 1 11 14
M  V30 12 1 11 15
M  V30 13 1 16 17
M  V30 14 1 16 18
M  V30 15 1 16 19
M  V30 16 1 16 20
M  V30 17 1 21 22
M  V30 18 1 21 23
M  V30 19 1 21 24
M  V30 20 1 21 25
M  V30 21 1 26 27
M  V30 22 1 26 28
M  V30 23 1 26 29
M  V30 24 1 26 30
M  V30 25 1 31 32
M  V30 26 1 31 33
M  V30 27 1 31 34
M  V30 28 1 31 35
M  V30 29 1 36 37
M  V30 30 1 36 38
M  V30 31 1 36 39
M  V30 32 1 36 40
M  V30 33 1 41 42
M  V30 34 1 41 43
M  V30 35 1 41 44
M  V30 36 1 41 45
M  V30 37 1 46 47
M  V30 38 1 47 48
M  V30 39 1 49 50
M  V30 40 1 50 51
M  V30 41 1 52 53
M  V30 42 1 53 54
M  V30 43 1 55 56
M  V30 44 1 56 57
M  V30 45 1 58 59
M  V30 46 1 59 60
M  V30 47 1 61 62
M  V30 48 1 62 63
M  V30 49 1 64 65
M  V30 50 1 65 66
M  V30 51 1 67 68
M  V30 52 1 68 69
M  V30 53 1 70 71
M  V30 54 1 71 72
M  V30 55 1 73 74
M  V30 56 1 74 75
M  V30 57 1 76 77
M  V30 58 1 77 78
M  V30 59 1 79 80
M  V30 60 1 80 81
M  V30 61 1 82 83
M  V30 62 1 83 84
M  V30 63 1 85 86
M  V30 64 1 86 87
M  V30 65 1 88 89
M  V30 66 1 89 90
M  V30 67 1 91 92
M  V30 68 1 92 93
M  V30 69 1 94 95
M  V30 70 1 95 96
M  V30 71 1 97 98
M  V30 72 1 98 99
M  V30 73 1 2 94
M  V30 74 1 3 70
M  V30 75 1 4 79
M  V30 76 1 5 82
M  V30 77 1 7 52
M  V30 78 1 8 81
M  V30 79 1 9 72
M  V30 80 1 10 67
M  V30 81 1 12 85
M  V30 82 1 13 61
M  V30 83 1 14 46
M  V30 84 1 15 91
M  V30 85 1 17 58
M  V30 86 1 18 97
M  V30 87 1 19 76
M  V30 88 1 20 48
M  V30 89 1 22 55
M  V30 90 1 23 49
M  V30 91 1 24 93
M  V30 92 1 25 96
M  V30 93 1 27 54
M  V30 94 1 28 88
M  V30 95 1 29 69
M  V30 96 1 30 51
M  V30 97 1 32 57
M  V30 98 1 33 73
M  V30 99 1 34 87
M  V30 100 1 35 99
M  V30 101 1 37 64
M  V30 102 1 38 63
M  V30 103 1 39 84
M  V30 104 1 40 90
M  V30 105 1 42 78
M  V30 106 1 43 60
M  V30 107 1 44 75
M  V30 108 1 45 66
M  V30 END BOND
M  V30 END CTAB
M  END

$$$$
