
     RDKit          3D

  0  0  0  0  0  0  0  0  0  0999 V3000
M  V30 BEGIN CTAB
M  V30 COUNTS 99 108 0 0 0
M  V30 BEGIN ATOM
M  V30 1 Pd 4.7840 2.6393 4.3850 0
M  V30 2 Pb 4.6871 2.0702 5.1925 0
M  V30 3 Pb 5.5076 2.0088 4.1038 0
M  V30 4 Pb 4.7454 3.1228 3.5083 0
M  V30 5 Pb 4.0032 3.1884 4.6695 0
M  V30 6 Pd 0.8453 -2.8018 3.5392 0
M  V30 7 Pb 0.2324 -3.1413 2.8224 0
M  V30 8 Pb 0.1283 -2.1493 3.7954 0
M  V30 9 Pb 1.3935 -2.4805 4.3059 0
M  V30 10 Pb 1.6212 -3.3890 3.2816 0
M  V30 11 Pd 4.3977 -3.6716 -4.2028 0
M  V30 12 Pb 5.0763 -3.9501 -3.5103 0
M  V30 13 Pb 3.5665 -3.3278 -4.6569 0
M  V30 14 Pb 4.8264 -2.7749 -4.2374 0
M  V30 15 Pb 4.0004 -4.5850 -4.2051 0
M  V30 16 Pd -0.5453 -2.8782 -2.0399 0
M  V30 17 Pb -0.6857 -3.8326 -2.2884 0
M  V30 18 Pb -0.9153 -3.0883 -1.1354 0
M  V30 19 Pb -0.3482 -1.9331 -1.7777 0
M  V30 20 Pb -0.0947 -2.7235 -2.9360 0
M  V30 21 Pd -6.6681 0.0154 -2.4633 0
M  V30 22 Pb -6.6782 -0.5519 -1.6400 0
M  V30 23 Pb -6.5854 0.6322 -3.2451 0
M  V30 24 Pb -7.2516 0.6733 -1.9936 0
M  V30 25 Pb -5.9895 -0.5793 -2.8894 0
M  V30 26 Pd -2.3945 1.9464 -3.4647 0
M  V30 27 Pb -2.5964 0.9828 -3.6442 0
M  V30 28 Pb -1.6374 1.6773 -2.8724 0
M  V30 29 Pb -2.2217 2.9126 -3.2695 0
M  V30 30 Pb -3.1924 2.1881 -4.0163 0
M  V30 31 Pd -5.3590 1.7830 1.9809 0
M  V30 32 Pb -5.6315 0.8336 1.8196 0
M  V30 33 Pb -6.1387 2.0735 1.4249 0
M  V30 34 Pb -5.0899 2.7432 2.0835 0
M  V30 35 Pb -4.6080 1.4700 2.5667 0
M  V30 36 Pd -1.0213 5.1685 0.9026 0
M  V30 37 Pb -1.2632 5.2375 -0.0672 0
M  V30 38 Pb -1.9820 5.2279 1.1812 0
M  V30 39 Pb -0.7513 5.1367 1.8611 0
M  V30 40 Pb -0.0440 5.0989 0.6816 0
M  V30 41 Pd 5.9455 -2.1539 1.2374 0
M  V30 42 Pb 6.3903 -1.4796 0.6575 0
M  V30 43 Pb 6.1229 -1.5341 2.0067 0
M  V30 44 Pb 5.4104 -2.8213 1.7720 0
M  V30 45 Pb 5.9480 -2.7961 0.4470 0
M  V30 46 Ag -0.3788 -1.6275 3.9879 0
M  V30 47 Fe -2.2268 -0.2194 3.4808 0
M  V30 48 Ag -4.0724 1.2097 3.0269 0
M  V30 49 Ag 4.5771 3.4671 2.8603 0
M  V30 50 Fe 2.7182 4.2936 1.6253 0
M  V30 51 Ag 0.7036 5.0371 0.5991 0
M  V30 52 Ag 3.5780 -5.1941 -4.1780 0
M  V30 53 Fe 1.3593 -5.4539 -3.4380 0
M  V30 54 Ag -0.5964 -4.5340 -2.5086 0
M  V30 55 Ag 5.2033 -2.1453 -4.1332 0
M  V30 56 Fe 6.1344 -1.1742 -2.1990 0
M  V30 57 Ag 6.6062 -1.0367 0.1049 0
M  V30 58 Ag 3.3754 3.5621 4.8192 0
M  V30 59 Fe 1.3946 4.3957 3.8213 0
M  V30 60 Ag -0.4729 5.1153 2.5527 0
M  V30 61 Ag 4.5195 1.5350 5.6766 0
M  V30 62 Fe 3.1996 -0.4212 5.5277 0
M  V30 63 Ag 1.7961 -2.2087 4.8712 0
M  V30 64 Ba -0.3129 -3.3673 2.3551 0
M  V30 65 Ga -0.6994 -3.3152 0.9307 0
M  V30 66 Ba -1.1722 -3.3153 -0.4686 0
M  V30 67 Ba -7.6135 1.1870 -1.5898 0
M  V30 68 Ga -7.2255 1.7595 -0.2893 0
M  V30 69 Ba -6.7354 2.2566 1.0080 0
M  V30 70 Ba -0.1662 -1.2284 -1.5950 0
M  V30 71 Ga -0.6245 0.1140 -1.9964 0
M  V30 72 Ba -1.0964 1.4483 -2.4088 0
M  V30 73 Ba -6.4464 1.1098 -3.8052 0
M  V30 74 Ga -5.1700 1.7539 -4.1629 0
M  V30 75 Ba -3.8273 2.3159 -4.3937 0
M  V30 76 Ba -4.9265 3.4769 2.1188 0
M  V30 77 Ga -3.7907 4.3572 1.7720 0
M  V30 78 Ba -2.6854 5.2817 1.4422 0
M  V30 79 Ba -5.4163 -0.9469 -3.1985 0
M  V30 80 Ga -4.0807 -0.4102 -3.5137 0
M  V30 81 Ba -2.7989 0.2709 -3.7691 0
M  V30 82 Ba 2.2472 -3.7960 3.1549 0
M  V30 83 Ga 3.6109 -3.5475 2.6193 0
M  V30 84 Ba 4.9902 -3.3631 2.0980 0
M  V30 85 Ba 2.8983 -3.0633 -4.9032 0
M  V30 86 Ga 1.5745 -2.8494 -4.2489 0
M  V30 87 Ba 0.2419 -2.6259 -3.6159 0
M  V30 88 Ba -2.1108 3.6413 -3.1268 0
M  V30 89 Ga -1.7659 4.4594 -1.9467 0
M  V30 90 Ba -1.4236 5.3207 -0.7970 0
M  V30 91 Ba 6.0241 1.4762 3.9875 0
M  V30 92 Ga 6.1539 0.2180 3.2209 0
M  V30 93 Ba 6.4093 -1.0572 2.5169 0
M  V30 94 Ba 5.5186 -4.1492 -2.9244 0
M  V30 95 Ga 5.7546 -3.6706 -1.5293 0
M  V30 96 Ba 6.0768 -3.2988 -0.1195 0
M  V30 97 Ba -6.6548 -0.9212 -0.9876 0
M  V30 98 Ga -6.2629 -0.4465 0.3535 0
M  V30 99 Ba -5.8511 0.1371 1.6448 0
M  V30 END ATOM
M  V30 BEGIN BOND
M  V30 1 1 1 2
M  V30 2 1 1 3
M  V30 3 1 1 4
M  V30 4 1 1 5
M  V30 5 1 6 7
M  V30 6 1 6 8
M  V30 7 1 6 9
M  V30 8 1 6 10
M  V30 9 1 11 12
M  V30 10 1 11 13
M  V30 11 1 11 14
M  V30 12 1 11 15
M  V30 13 1 16 17
M  V30 14 1 16 18
M  V30 15 1 16 19
M  V30 16 1 16 20
M  V30 17 1 21 22
M  V30 18 1 21 23
M  V30 19 1 21 24
M  V30 20 1 21 25
M  V30 21 1 26 27
M  V30 22 1 26 28
M  V30 23 1 26 29
M  V30 24 1 26 30
M  V30 25 1 31 32
M  V30 26 1 31 33
M  V30 27 1 31 34
M  V30 28 1 31 35
M  V30 29 1 36 37
M  V30 30 1 36 38
M  V30 31 1 36 39
M  V30 32 1 36 40
M  V30 33 1 41 42
M  V30 34 1 41 43
M  V30 35 1 41 44
M  V30 36 1 41 45
M  V30 37 1 46 47
M  V30 38 1 47 48
M  V30 39 1 49 50
M  V30 40 1 50 51
M  V30 41 1 52 53
M  V30 42 1 53 54
M  V30 43 1 55 56
M  V30 44 1 56 57
M  V30 45 1 58 59
M  V30 46 1 59 60
M  V30 47 1 61 62
M  V30 48 1 62 63
M  V30 49 1 64 65
M  V30 50 1 65 66
M  V30 51 1 67 68
M  V30 52 1 68 69
M  V30 53 1 70 71
M  V30 54 1 71 72
M  V30 55 1 73 74
M  V30 56 1 74 75
M  V30 57 1 76 77
M  V30 58 1 77 78
M  V30 59 1 79 80
M  V30 60 1 80 81
M  V30 61 1 82 83
M  V30 62 1 83 84
M  V30 63 1 85 86
M  V30 64 1 86 87
M  V30 65 1 88 89
M  V30 66 1 89 90
M  V30 67 1 91 92
M  V30 68 1 92 93
M  V30 69 1 94 95
M  V30 70 1 95 96
M  V30 71 1 97 98
M  V30 72 1 98 99
M  V30 73 1 2 61
M  V30 74 1 3 91
M  V30 75 1 4 49
M  V30 76 1 5 58
M  V30 77 1 7 64
M  V30 78 1 8 46
M  V30 79 1 9 63
M  V30 80 1 10 82
M  V30 81 1 12 94
M  V30 82 1 13 85
M  V30 83 1 14 55
M  V30 84 1 15 52
M  V30 85 1 17 54
M  V30 86 1 18 66
M  V30 87 1 19 70
M  V30 88 1 20 87
M  V30 89 1 22 97
M  V30 90 1 23 73
M  V30 91 1 24 67
M  V30 92 1 25 79
M  V30 93 1 27 81
M  V30 94 1 28 72
M  V30 95 1 29 88
M  V30 96 1 30 75
M  V30 97 1 32 99
M  V30 98 1 33 69
M  V30 99 1 34 76
M  V30 100 1 35 48
M  V30 101 1 37 90
M  V30 102 1 38 78
M  V30 103 1 39 60
M  V30 104 1 40 51
M  V30 105 1 42 57
M  V30 106 1 43 93
M  V30 107 1 44 84
M  V30 108 1 45 96
M  V30 END BOND
M  V30 END CTAB
M  END

$$$$
