
     RDKit          3D

  0  0  0  0  0  0  0  0  0  0999 V3000
M  V30 BEGIN CTAB
M  V30 COUNTS 99 108 0 0 0
M  V30 BEGIN ATOM
M  V30 1 Pd 4.3322 -2.9025 2.3344 0
M  V30 2 Pb 4.0455 -1.9459 2.2453 0
M  V30 3 Pb 3.7135 -3.0478 3.1018 0
M  V30 4 Pb 4.5496 -3.8912 2.3508 0
M  V30 5 Pb 4.9538 -2.7731 1.5608 0
M  V30 6 Pd 1.8759 -7.8234 1.0921 0
M  V30 7 Pb 0.9591 -7.9835 0.7342 0
M  V30 8 Pb 2.7774 -7.5134 1.4282 0
M  V30 9 Pb 1.5052 -7.6633 2.0028 0
M  V30 10 Pb 2.2266 -7.9007 0.1581 0
M  V30 11 Pd 2.4983 4.4182 2.0988 0
M  V30 12 Pb 1.7473 4.9774 2.4319 0
M  V30 13 Pb 3.2227 3.8132 1.7657 0
M  V30 14 Pb 2.3538 4.8156 1.1919 0
M  V30 15 Pb 2.5281 3.9872 2.9991 0
M  V30 16 Pd -3.0151 5.8651 -3.1959 0
M  V30 17 Pb -3.8882 5.8682 -3.6797 0
M  V30 18 Pb -3.4664 6.3347 -2.4381 0
M  V30 19 Pb -2.6777 5.1789 -3.8519 0
M  V30 20 Pb -2.1061 5.9033 -2.7699 0
M  V30 21 Pd -0.2175 0.5996 2.8472 0
M  V30 22 Pb -1.1485 0.7459 3.1920 0
M  V30 23 Pb -0.6152 0.1456 2.0504 0
M  V30 24 Pb 0.2015 1.0591 3.6292 0
M  V30 25 Pb 0.7177 0.4948 2.4967 0
M  V30 26 Pd 0.3099 -4.8518 -2.4151 0
M  V30 27 Pb -0.2485 -5.5545 -1.9709 0
M  V30 28 Pb 0.8615 -4.1526 -2.8731 0
M  V30 29 Pb 0.9830 -5.5620 -2.6221 0
M  V30 30 Pb -0.3195 -4.1345 -2.1250 0
M  V30 31 Pd -4.6326 3.7209 1.4828 0
M  V30 32 Pb -4.3831 2.9949 2.1312 0
M  V30 33 Pb -5.2181 3.0557 1.0093 0
M  V30 34 Pb -4.0306 4.3500 1.9631 0
M  V30 35 Pb -4.8456 4.4980 0.8783 0
M  V30 36 Pd 3.3023 -0.0949 -1.3477 0
M  V30 37 Pb 2.3904 0.2775 -1.1844 0
M  V30 38 Pb 3.7075 0.5301 -0.6749 0
M  V30 39 Pb 4.1868 -0.5495 -1.4067 0
M  V30 40 Pb 2.9492 -0.7004 -2.0653 0
M  V30 41 Pd -4.3093 0.9300 -2.9734 0
M  V30 42 Pb -3.7070 1.3373 -3.6731 0
M  V30 43 Pb -5.0949 1.0409 -3.5801 0
M  V30 44 Pb -4.9340 0.7428 -2.2173 0
M  V30 45 Pb -3.5289 0.9250 -2.3512 0
M  V30 46 Ag 2.1593 5.1160 0.5314 0
M  V30 47 Fe 0.3798 5.5239 -0.9936 0
M  V30 48 Ag -1.3934 5.9393 -2.5238 0
M  V30 49 Ag 1.6993 0.5014 -1.0034 0
M  V30 50 Fe -0.6147 0.7357 -1.4762 0
M  V30 51 Ag -2.9357 0.9935 -1.9000 0
M  V30 52 Ag 3.2338 -3.3125 3.6030 0
M  V30 53 Fe 2.0054 -5.3246 3.6006 0
M  V30 54 Ag 1.3142 -7.3715 2.6576 0
M  V30 55 Ag -0.9314 -0.1924 1.4608 0
M  V30 56 Fe -0.8837 -1.8671 -0.2202 0
M  V30 57 Ag -0.7390 -3.5742 -1.8625 0
M  V30 58 Ag 1.1363 5.3319 2.6633 0
M  V30 59 Fe -1.2252 5.2103 2.5709 0
M  V30 60 Ag -3.5395 4.8062 2.2860 0
M  V30 61 Ag -4.5219 5.7284 -4.0432 0
M  V30 62 Fe -5.6188 3.6775 -4.4019 0
M  V30 63 Ag -5.6171 1.3611 -3.9972 0
M  V30 64 Ba 2.4420 -7.9051 -0.5610 0
M  V30 65 Ga 2.0079 -7.0428 -1.6771 0
M  V30 66 Ba 1.4866 -6.1129 -2.6976 0
M  V30 67 Ba -5.6275 2.4934 0.7147 0
M  V30 68 Ga -5.5368 1.5977 -0.4589 0
M  V30 69 Ba -5.4187 0.7233 -1.6459 0
M  V30 70 Ba -2.4855 4.5921 -4.2934 0
M  V30 71 Ga -2.8569 3.1501 -4.2491 0
M  V30 72 Ba -3.2616 1.7195 -4.1563 0
M  V30 73 Ba 4.7109 -4.6365 2.3533 0
M  V30 74 Ga 4.0475 -5.9267 2.0111 0
M  V30 75 Ba 3.4429 -7.2503 1.6876 0
M  V30 76 Ba 5.3955 -2.6549 0.9656 0
M  V30 77 Ga 5.1889 -1.8176 -0.2276 0
M  V30 78 Ba 4.8220 -0.9362 -1.3478 0
M  V30 79 Ba 0.2805 -8.0009 0.4219 0
M  V30 80 Ga -0.2430 -7.0893 -0.6111 0
M  V30 81 Ba -0.6330 -6.1096 -1.6412 0
M  V30 82 Ba 1.2489 -3.6200 -3.2348 0
M  V30 83 Ga 1.9832 -2.3837 -2.8929 0
M  V30 84 Ba 2.7347 -1.1363 -2.6409 0
M  V30 85 Ba -1.8577 0.8427 3.4278 0
M  V30 86 Ga -3.0178 1.6663 3.0176 0
M  V30 87 Ba -4.2038 2.4695 2.6428 0
M  V30 88 Ba 2.4428 3.6492 3.6617 0
M  V30 89 Ga 1.5438 2.5308 3.9962 0
M  V30 90 Ba 0.5996 1.4113 4.1572 0
M  V30 91 Ba 3.8332 -1.2359 2.1130 0
M  V30 92 Ga 2.6079 -0.4127 2.2142 0
M  V30 93 Ba 1.4385 0.4918 2.2742 0
M  V30 94 Ba -3.9018 6.5711 -1.8735 0
M  V30 95 Ga -4.4176 5.8654 -0.6760 0
M  V30 96 Ba -4.9406 5.1584 0.5176 0
M  V30 97 Ba 3.7643 3.3435 1.5426 0
M  V30 98 Ga 3.8769 2.1653 0.6572 0
M  V30 99 Ba 4.0841 0.9821 -0.2038 0
M  V30 END ATOM
M  V30 BEGIN BOND
M  V30 1 1 1 2
M  V30 2 1 1 3
M  V30 3 1 1 4
M  V30 4 1 1 5
M  V30 5 1 6 7
M  V30 6 1 6 8
M  V30 7 1 6 9
M  V30 8 1 6 10
M  V30 9 1 11 12
M  V30 10 1 11 13
M  V30 11 1 11 14
M  V30 12 1 11 15
M  V30 13 1 16 17
M  V30 14 1 16 18
M  V30 15 1 16 19
M  V30 16 1 16 20
M  V30 17 1 21 22
M  V30 18 1 21 23
M  V30 19 1 21 24
M  V30 20 1 21 25
M  V30 21 1 26 27
M  V30 22 1 26 28
M  V30 23 1 26 29
M  V30 24 1 26 30
M  V30 25 1 31 32
M  V30 26 1 31 33
M  V30 27 1 31 34
M  V30 28 1 31 35
M  V30 29 1 36 37
M  V30 30 1 36 38
M  V30 31 1 36 39
M  V30 32 1 36 40
M  V30 33 1 41 42
M  V30 34 1 41 43
M  V30 35 1 41 44
M  V30 36 1 41 45
M  V30 37 1 46 47
M  V30 38 1 47 48
M  V30 39 1 49 50
M  V30 40 1 50 51
M  V30 41 1 52 53
M  V30 42 1 53 54
M  V30 43 1 55 56
M  V30 44 1 56 57
M  V30 45 1 58 59
M  V30 46 1 59 60
M  V30 47 1 61 62
M  V30 48 1 62 63
M  V30 49 1 64 65
M  V30 50 1 65 66
M  V30 51 1 67 68
M  V30 52 1 68 69
M  V30 53 1 70 71
M  V30 54 1 71 72
M  V30 55 1 73 74
M  V30 56 1 74 75
M  V30 57 1 76 77
M  V30 58 1 77 78
M  V30 59 1 79 80
M  V30 60 1 80 81
M  V30 61 1 82 83
M  V30 62 1 83 84
M  V30 63 1 85 86
M  V30 64 1 86 87
M  V30 65 1 88 89
M  V30 66 1 89 90
M  V30 67 1 91 92
M  V30 68 1 92 93
M  V30 69 1 94 95
M  V30 70 1 95 96
M  V30 71 1 97 98
M  V30 72 1 98 99
M  V30 73 1 2 91
M  V30 74 1 3 52
M  V30 75 1 4 73
M  V30 76 1 5 76
M  V30 77 1 7 79
M  V30 78 1 8 75
M  V30 79 1 9 54
M  V30 80 1 10 64
M  V30 81 1 12 58
M  V30 82 1 13 97
M  V30 83 1 14 46
M  V30 84 1 15 88
M  V30 85 1 17 61
M  V30 86 1 18 94
M  V30 87 1 19 70
M  V30 88 1 20 48
M  V30 89 1 22 85
M  V30 90 1 23 55
M  V30 91 1 24 90
M  V30 92 1 25 93
M  V30 93 1 27 81
M  V30 94 1 28 82
M  V30 95 1 29 66
M  V30 96 1 30 57
M  V30 97 1 32 87
M  V30 98 1 33 67
M  V30 99 1 34 60
M  V30 100 1 35 96
M  V30 101 1 37 49
M  V30 102 1 38 99
M  V30 103 1 39 78
M  V30 104 1 40 84
M  V30 105 1 42 72
M  V30 106 1 43 63
M  V30 107 1 44 69
M  V30 108 1 45 51
M  V30 END BOND
M  V30 END CTAB
M  END

$$$$
