
     RDKit          3D

  0  0  0  0  0  0  0  0  0  0999 V3000
M  V30 BEGIN CTAB
M  V30 COUNTS 99 108 0 0 0
M  V30 BEGIN ATOM
M  V30 1 Pd 3.0137 5.4167 0.2377 0
M  V30 2 Pb 2.6505 5.3540 1.1695 0
M  V30 3 Pb 3.3506 5.4714 -0.7012 0
M  V30 4 Pb 2.9188 6.4129 0.2326 0
M  V30 5 Pb 3.0330 4.4205 0.1722 0
M  V30 6 Pd 0.5068 7.5610 -3.3079 0
M  V30 7 Pb 0.0372 6.9319 -3.9296 0
M  V30 8 Pb 0.9612 8.1098 -2.6044 0
M  V30 9 Pb 1.3878 7.1412 -3.5138 0
M  V30 10 Pb -0.3809 7.9385 -3.0558 0
M  V30 11 Pd -3.9749 -2.1210 0.5218 0
M  V30 12 Pb -3.7609 -1.8192 1.4478 0
M  V30 13 Pb -4.1142 -2.4060 -0.4260 0
M  V30 14 Pb -4.1375 -3.0532 0.8460 0
M  V30 15 Pb -3.7149 -1.2166 0.1828 0
M  V30 16 Pd -0.1471 -8.4189 2.2389 0
M  V30 17 Pb -0.2095 -8.7729 1.3035 0
M  V30 18 Pb 0.0074 -7.9606 3.1135 0
M  V30 19 Pb 0.7749 -8.7964 2.2891 0
M  V30 20 Pb -1.0615 -8.0154 2.1759 0
M  V30 21 Pd -0.8150 2.5342 1.8557 0
M  V30 22 Pb 0.0345 2.0306 1.6862 0
M  V30 23 Pb -1.6428 3.0739 2.0027 0
M  V30 24 Pb -1.3328 2.0141 1.1717 0
M  V30 25 Pb -0.2892 3.1331 2.4587 0
M  V30 26 Pd -3.2404 4.6562 -1.8453 0
M  V30 27 Pb -2.8616 4.6248 -2.7718 0
M  V30 28 Pb -3.2282 3.6587 -1.7449 0
M  V30 29 Pb -3.2656 5.6525 -1.9184 0
M  V30 30 Pb -3.5579 4.7105 -0.8995 0
M  V30 31 Pd 2.2308 -1.7652 3.8233 0
M  V30 32 Pb 2.3279 -0.9876 3.2008 0
M  V30 33 Pb 3.0464 -2.1761 3.4157 0
M  V30 34 Pb 1.3559 -1.4125 4.1443 0
M  V30 35 Pb 2.0650 -2.5910 4.3628 0
M  V30 36 Pd -0.7613 -0.7517 -2.5716 0
M  V30 37 Pb -0.1156 -1.4285 -2.9271 0
M  V30 38 Pb -1.5278 -1.2832 -2.9303 0
M  V30 39 Pb -0.0004 -0.2738 -2.1299 0
M  V30 40 Pb -1.4387 -0.1192 -2.1883 0
M  V30 41 Pd 3.2099 -7.1003 -0.9390 0
M  V30 42 Pb 3.4269 -7.7542 -0.2178 0
M  V30 43 Pb 2.4768 -7.7159 -1.2361 0
M  V30 44 Pb 3.8532 -6.4514 -0.5339 0
M  V30 45 Pb 2.9719 -6.4301 -1.6434 0
M  V30 46 Ag -4.1963 -3.7636 1.0804 0
M  V30 47 Fe -3.0200 -5.7568 1.6184 0
M  V30 48 Ag -1.7379 -7.6914 2.1282 0
M  V30 49 Ag 0.3583 -1.9574 -3.1707 0
M  V30 50 Fe 1.5878 -3.9342 -2.6956 0
M  V30 51 Ag 2.7912 -5.9100 -2.1540 0
M  V30 52 Ag 3.6035 -2.5132 3.0435 0
M  V30 53 Fe 4.0784 -4.2043 1.4454 0
M  V30 54 Ag 4.2604 -5.9482 -0.1561 0
M  V30 55 Ag 3.0063 3.6791 0.0713 0
M  V30 56 Fe 1.7958 1.8526 -0.8452 0
M  V30 57 Ag 0.5821 0.0301 -1.7654 0
M  V30 58 Ag -3.5127 -1.5768 2.1090 0
M  V30 59 Fe -1.5197 -1.3143 3.3643 0
M  V30 60 Ag 0.6534 -1.2198 4.3052 0
M  V30 61 Ag 0.1942 -7.5510 3.7129 0
M  V30 62 Fe 1.0346 -5.4228 4.3489 0
M  V30 63 Ag 1.8753 -3.2305 4.7064 0
M  V30 64 Ba -1.0661 8.1549 -2.8521 0
M  V30 65 Ga -2.2007 7.3285 -2.4101 0
M  V30 66 Ba -3.2590 6.3988 -1.9840 0
M  V30 67 Ba 3.5607 5.5311 -1.4174 0
M  V30 68 Ga 2.8655 6.1531 -2.5556 0
M  V30 69 Ba 2.0539 6.8118 -3.5913 0
M  V30 70 Ba 1.4794 -9.0449 2.2790 0
M  V30 71 Ga 2.5620 -8.6937 1.3489 0
M  V30 72 Ba 3.5307 -8.2389 0.3411 0
M  V30 73 Ba 2.8115 7.1512 0.1476 0
M  V30 74 Ga 2.0784 7.8672 -0.9160 0
M  V30 75 Ba 1.3157 8.4523 -2.0373 0
M  V30 76 Ba -2.2709 3.4791 2.0501 0
M  V30 77 Ga -3.0534 4.1272 0.9833 0
M  V30 78 Ba -3.7413 4.7262 -0.1735 0
M  V30 79 Ba -0.3455 6.4282 -4.3357 0
M  V30 80 Ga -1.4474 5.5236 -3.9470 0
M  V30 81 Ba -2.5429 4.6647 -3.4515 0
M  V30 82 Ba -3.2730 2.9232 -1.5918 0
M  V30 83 Ga -2.5700 1.6386 -1.7945 0
M  V30 84 Ba -2.0086 0.2748 -1.8939 0
M  V30 85 Ba 0.7090 1.7170 1.5742 0
M  V30 86 Ga 1.5259 0.6287 2.1493 0
M  V30 87 Ba 2.3874 -0.4453 2.6846 0
M  V30 88 Ba -3.4806 -0.5639 -0.1037 0
M  V30 89 Ga -2.6084 0.5549 0.3100 0
M  V30 90 Ba -1.7550 1.7205 0.6208 0
M  V30 91 Ba 2.3605 5.2820 1.8594 0
M  V30 92 Ga 1.2582 4.4611 2.3982 0
M  V30 93 Ba 0.1425 3.6059 2.8484 0
M  V30 94 Ba -0.1727 -8.9854 0.5825 0
M  V30 95 Ga 0.8268 -8.6195 -0.4453 0
M  V30 96 Ba 1.8928 -8.1721 -1.3688 0
M  V30 97 Ba -4.1446 -2.5695 -1.1566 0
M  V30 98 Ga -3.1873 -2.1745 -2.2051 0
M  V30 99 Ba -2.1306 -1.6900 -3.1107 0
M  V30 END ATOM
M  V30 BEGIN BOND
M  V30 1 1 1 2
M  V30 2 1 1 3
M  V30 3 1 1 4
M  V30 4 1 1 5
M  V30 5 1 6 7
M  V30 6 1 6 8
M  V30 7 1 6 9
M  V30 8 1 6 10
M  V30 9 1 11 12
M  V30 10 1 11 13
M  V30 11 1 11 14
M  V30 12 1 11 15
M  V30 13 1 16 17
M  V30 14 1 16 18
M  V30 15 1 16 19
M  V30 16 1 16 20
M  V30 17 1 21 22
M  V30 18 1 21 23
M  V30 19 1 21 24
M  V30 20 1 21 25
M  V30 21 1 26 27
M  V30 22 1 26 28
M  V30 23 1 26 29
M  V30 24 1 26 30
M  V30 25 1 31 32
M  V30 26 1 31 33
M  V30 27 1 31 34
M  V30 28 1 31 35
M  V30 29 1 36 37
M  V30 30 1 36 38
M  V30 31 1 36 39
M  V30 32 1 36 40
M  V30 33 1 41 42
M  V30 34 1 41 43
M  V30 35 1 41 44
M  V30 36 1 41 45
M  V30 37 1 46 47
M  V30 38 1 47 48
M  V30 39 1 49 50
M  V30 40 1 50 51
M  V30 41 1 52 53
M  V30 42 1 53 54
M  V30 43 1 55 56
M  V30 44 1 56 57
M  V30 45 1 58 59
M  V30 46 1 59 60
M  V30 47 1 61 62
M  V30 48 1 62 63
M  V30 49 1 64 65
M  V30 50 1 65 66
M  V30 51 1 67 68
M  V30 52 1 68 69
M  V30 53 1 70 71
M  V30 54 1 71 72
M  V30 55 1 73 74
M  V30 56 1 74 75
M  V30 57 1 76 77
M  V30 58 1 77 78
M  V30 59 1 79 80
M  V30 60 1 80 81
M  V30 61 1 82 83
M  V30 62 1 83 84
M  V30 63 1 85 86
M  V30 64 1 86 87
M  V30 65 1 88 89
M  V30 66 1 89 90
M  V30 67 1 91 92
M  V30 68 1 92 93
M  V30 69 1 94 95
M  V30 70 1 95 96
M  V30 71 1 97 98
M  V30 72 1 98 99
M  V30 73 1 2 91
M  V30 74 1 3 67
M  V30 75 1 4 73
M  V30 76 1 5 55
M  V30 77 1 7 79
M  V30 78 1 8 75
M  V30 79 1 9 69
M  V30 80 1 10 64
M  V30 81 1 12 58
M  V30 82 1 13 97
M  V30 83 1 14 46
M  V30 84 1 15 88
M  V30 85 1 17 94
M  V30 86 1 18 61
M  V30 87 1 19 70
M  V30 88 1 20 48
M  V30 89 1 22 85
M  V30 90 1 23 76
M  V30 91 1 24 90
M  V30 92 1 25 93
M  V30 93 1 27 81
M  V30 94 1 28 82
M  V30 95 1 29 66
M  V30 96 1 30 78
M  V30 97 1 32 87
M  V30 98 1 33 52
M  V30 99 1 34 60
M  V30 100 1 35 63
M  V30 101 1 37 49
M  V30 102 1 38 99
M  V30 103 1 39 57
M  V30 104 1 40 84
M  V30 105 1 42 72
M  V30 106 1 43 96
M  V30 107 1 44 54
M  V30 108 1 45 51
M  V30 END BOND
M  V30 END CTAB
M  END

$$$$
