
     RDKit          3D

  0  0  0  0  0  0  0  0  0  0999 V3000
M  V30 BEGIN CTAB
M  V30 COUNTS 99 108 0 0 0
M  V30 BEGIN ATOM
M  V30 1 Pd 2.7181 -2.1428 -0.6495 0
M  V30 2 Pb 2.1167 -1.9997 -1.4408 0
M  V30 3 Pb 2.7169 -3.1202 -0.8626 0
M  V30 4 Pb 2.6913 -1.1829 -0.3686 0
M  V30 5 Pb 3.2055 -2.3086 0.2066 0
M  V30 6 Pd -5.8312 -5.0037 2.4260 0
M  V30 7 Pb -6.0820 -4.0359 2.3900 0
M  V30 8 Pb -6.0262 -5.1221 1.4557 0
M  V30 9 Pb -5.5734 -4.8945 3.3843 0
M  V30 10 Pb -5.4927 -5.9570 2.4454 0
M  V30 11 Pd -1.3875 5.4097 -4.2307 0
M  V30 12 Pb -1.4409 4.4885 -4.6586 0
M  V30 13 Pb -2.0998 5.1533 -3.5751 0
M  V30 14 Pb -1.2932 6.3086 -3.7984 0
M  V30 15 Pb -0.6908 5.6582 -4.8957 0
M  V30 16 Pd 1.9418 7.3507 -0.4855 0
M  V30 17 Pb 1.2183 7.7677 -1.0390 0
M  V30 18 Pb 2.6459 7.5878 -1.1516 0
M  V30 19 Pb 1.2759 7.0916 0.2138 0
M  V30 20 Pb 2.6601 6.8925 0.0558 0
M  V30 21 Pd -3.3064 2.4031 2.5793 0
M  V30 22 Pb -3.9744 1.6561 2.5392 0
M  V30 23 Pb -3.6791 2.7825 1.7324 0
M  V30 24 Pb -2.6978 3.1949 2.6292 0
M  V30 25 Pb -2.8785 2.0259 3.4040 0
M  V30 26 Pd 5.5395 2.9087 -0.6205 0
M  V30 27 Pb 6.0926 3.5515 -1.1441 0
M  V30 28 Pb 5.7534 2.1724 -1.2579 0
M  V30 29 Pb 4.8380 2.3431 -0.1852 0
M  V30 30 Pb 5.2695 3.6740 -0.0217 0
M  V30 31 Pd 1.5241 0.5064 -5.6466 0
M  V30 32 Pb 1.1540 -0.1862 -5.0283 0
M  V30 33 Pb 2.4388 0.1488 -5.4815 0
M  V30 34 Pb 1.9041 1.2192 -6.2270 0
M  V30 35 Pb 0.6179 0.9585 -5.7114 0
M  V30 36 Pd 0.3003 -3.4289 6.0379 0
M  V30 37 Pb 0.0714 -2.4602 6.1435 0
M  V30 38 Pb 0.4709 -4.3955 5.8487 0
M  V30 39 Pb -0.6280 -3.6536 6.3266 0
M  V30 40 Pb 1.1995 -3.2175 5.6554 0
M  V30 41 Pd -1.4177 -8.1620 0.6492 0
M  V30 42 Pb -1.9573 -8.0662 -0.1833 0
M  V30 43 Pb -0.5755 -7.9564 0.1515 0
M  V30 44 Pb -0.9032 -8.1829 1.5064 0
M  V30 45 Pb -2.2826 -8.2630 1.1635 0
M  V30 46 Ag -6.2231 -3.2988 2.3739 0
M  V30 47 Fe -5.3546 -1.0869 2.4367 0
M  V30 48 Ag -4.5190 1.1378 2.4973 0
M  V30 49 Ag -2.5127 1.7648 4.0081 0
M  V30 50 Fe -1.3343 0.0256 5.1213 0
M  V30 51 Ag -0.1661 -1.7488 6.1887 0
M  V30 52 Ag 0.8156 6.8796 0.7665 0
M  V30 53 Fe -0.7331 5.3384 1.6974 0
M  V30 54 Ag -2.2843 3.8198 2.6607 0
M  V30 55 Ag 3.2621 7.6324 -1.5682 0
M  V30 56 Fe 5.0756 6.1447 -1.8532 0
M  V30 57 Ag 6.2981 4.1484 -1.5362 0
M  V30 58 Ag -0.1495 5.6964 -5.4004 0
M  V30 59 Fe 1.2505 4.0342 -6.3115 0
M  V30 60 Ag 2.0918 1.8484 -6.5697 0
M  V30 61 Ag -6.0150 -5.3143 0.7380 0
M  V30 62 Fe -4.4364 -6.6062 -0.4489 0
M  V30 63 Ag -2.4698 -7.8880 -0.6909 0
M  V30 64 Ag -5.3197 -4.8106 4.0831 0
M  V30 65 Fe -3.4002 -4.3265 5.3903 0
M  V30 66 Ag -1.3448 -3.8184 6.4602 0
M  V30 67 Ag 3.4768 -2.3960 0.8993 0
M  V30 68 Fe 2.7993 -2.7463 3.1478 0
M  V30 69 Ag 1.8458 -3.1032 5.2927 0
M  V30 70 Ag 0.5642 -5.1096 5.6407 0
M  V30 71 Fe 0.0694 -6.7057 3.9535 0
M  V30 72 Ag -0.5368 -8.1381 2.1591 0
M  V30 73 Ag 2.6717 -3.8568 -0.9986 0
M  V30 74 Fe 1.4254 -5.8486 -0.6519 0
M  V30 75 Ag 0.0483 -7.7291 -0.1965 0
M  V30 76 Ag 5.8316 1.6408 -1.7758 0
M  V30 77 Fe 4.6510 0.6489 -3.5743 0
M  V30 78 Ag 3.1247 -0.0315 -5.2530 0
M  V30 79 Ag -2.6396 4.9525 -3.0924 0
M  V30 80 Fe -3.3035 4.0213 -1.0099 0
M  V30 81 Ag -3.9130 3.0828 1.0860 0
M  V30 82 Ba 1.6029 -1.9716 -1.9923 0
M  V30 83 Ga 1.2892 -1.3050 -3.2730 0
M  V30 84 Ba 0.8793 -0.7014 -4.5582 0
M  V30 85 Ba -5.2371 -6.6745 2.4632 0
M  V30 86 Ga -4.0683 -7.4661 1.9864 0
M  V30 87 Ba -2.9369 -8.3304 1.5469 0
M  V30 88 Ba -1.5105 3.8033 -4.9954 0
M  V30 89 Ga -0.7301 2.5774 -5.3443 0
M  V30 90 Ba -0.0648 1.3016 -5.7491 0
M  V30 91 Ba 3.1962 6.5581 0.4768 0
M  V30 92 Ga 4.1167 5.3928 0.4108 0
M  V30 93 Ba 5.0686 4.2512 0.4274 0
M  V30 94 Ba -1.1983 6.9821 -3.4777 0
M  V30 95 Ga -0.2713 7.5267 -2.4640 0
M  V30 96 Ba 0.6607 8.0611 -1.4493 0
M  V30 97 Ba 2.6790 -0.5015 -0.0533 0
M  V30 98 Ga 3.4957 0.7282 -0.0118 0
M  V30 99 Ba 4.2360 2.0004 0.1059 0
M  V30 END ATOM
M  V30 BEGIN BOND
M  V30 1 1 1 2
M  V30 2 1 1 3
M  V30 3 1 1 4
M  V30 4 1 1 5
M  V30 5 1 6 7
M  V30 6 1 6 8
M  V30 7 1 6 9
M  V30 8 1 6 10
M  V30 9 1 11 12
M  V30 10 1 11 13
M  V30 11 1 11 14
M  V30 12 1 11 15
M  V30 13 1 16 17
M  V30 14 1 16 18
M  V30 15 1 16 19
M  V30 16 1 16 20
M  V30 17 1 21 22
M  V30 18 1 21 23
M  V30 19 1 21 24
M  V30 20 1 21 25
M  V30 21 1 26 27
M  V30 22 1 26 28
M  V30 23 1 26 29
M  V30 24 1 26 30
M  V30 25 1 31 32
M  V30 26 1 31 33
M  V30 27 1 31 34
M  V30 28 1 31 35
M  V30 29 1 36 37
M  V30 30 1 36 38
M  V30 31 1 36 39
M  V30 32 1 36 40
M  V30 33 1 41 42
M  V30 34 1 41 43
M  V30 35 1 41 44
M  V30 36 1 41 45
M  V30 37 1 46 47
M  V30 38 1 47 48
M  V30 39 1 49 50
M  V30 40 1 50 51
M  V30 41 1 52 53
M  V30 42 1 53 54
M  V30 43 1 55 56
M  V30 44 1 56 57
M  V30 45 1 58 59
M  V30 46 1 59 60
M  V30 47 1 61 62
M  V30 48 1 62 63
M  V30 49 1 64 65
M  V30 50 1 65 66
M  V30 51 1 67 68
M  V30 52 1 68 69
M  V30 53 1 70 71
M  V30 54 1 71 72
M  V30 55 1 73 74
M  V30 56 1 74 75
M  V30 57 1 76 77
M  V30 58 1 77 78
M  V30 59 1 79 80
M  V30 60 1 80 81
M  V30 61 1 82 83
M  V30 62 1 83 84
M  V30 63 1 85 86
M  V30 64 1 86 87
M  V30 65 1 88 89
M  V30 66 1 89 90
M  V30 67 1 91 92
M  V30 68 1 92 93
M  V30 69 1 94 95
M  V30 70 1 95 96
M  V30 71 1 97 98
M  V30 72 1 98 99
M  V30 73 1 2 82
M  V30 74 1 3 73
M  V30 75 1 4 97
M  V30 76 1 5 67
M  V30 77 1 7 46
M  V30 78 1 8 61
M  V30 79 1 9 64
M  V30 80 1 10 85
M  V30 81 1 12 88
M  V30 82 1 13 79
M  V30 83 1 14 94
M  V30 84 1 15 58
M  V30 85 1 17 96
M  V30 86 1 18 55
M  V30 87 1 19 52
M  V30 88 1 20 91
M  V30 89 1 22 48
M  V30 90 1 23 81
M  V30 91 1 24 54
M  V30 92 1 25 49
M  V30 93 1 27 57
M  V30 94 1 28 76
M  V30 95 1 29 99
M  V30 96 1 30 93
M  V30 97 1 32 84
M  V30 98 1 33 78
M  V30 99 1 34 60
M  V30 100 1 35 90
M  V30 101 1 37 51
M  V30 102 1 38 70
M  V30 103 1 39 66
M  V30 104 1 40 69
M  V30 105 1 42 63
M  V30 106 1 43 75
M  V30 107 1 44 72
M  V30 108 1 45 87
M  V30 END BOND
M  V30 END CTAB
M  END

$$$$
