
     RDKit          3D

  0  0  0  0  0  0  0  0  0  0999 V3000
M  V30 BEGIN CTAB
M  V30 COUNTS 99 108 0 0 0
M  V30 BEGIN ATOM
M  V30 1 Pd -0.7900 -3.6249 0.4070 0
M  V30 2 Pb -0.0795 -4.1976 0.8134 0
M  V30 3 Pb -0.0615 -3.0534 0.0288 0
M  V30 4 Pb -1.4945 -4.2408 0.7656 0
M  V30 5 Pb -1.4888 -3.0110 0.0330 0
M  V30 6 Pd 3.8449 2.1469 -7.8331 0
M  V30 7 Pb 3.7202 2.9006 -7.1887 0
M  V30 8 Pb 4.6821 1.8522 -7.3712 0
M  V30 9 Pb 2.9488 2.3652 -8.2138 0
M  V30 10 Pb 3.9200 1.3423 -8.4202 0
M  V30 11 Pd 1.9531 2.0476 5.1423 0
M  V30 12 Pb 2.4734 1.1973 4.9265 0
M  V30 13 Pb 2.0928 2.4066 4.2170 0
M  V30 14 Pb 1.3422 2.8000 5.3751 0
M  V30 15 Pb 1.8612 1.7560 6.0850 0
M  V30 16 Pd -3.4609 2.4624 4.7469 0
M  V30 17 Pb -2.6750 2.8817 5.2066 0
M  V30 18 Pb -4.2678 2.1341 4.2772 0
M  V30 19 Pb -3.4672 3.2433 4.1276 0
M  V30 20 Pb -3.4249 1.5956 5.2946 0
M  V30 21 Pd -0.3420 4.8652 -1.8147 0
M  V30 22 Pb 0.3412 4.8672 -2.5482 0
M  V30 23 Pb 0.3865 4.6862 -1.1518 0
M  V30 24 Pb -0.9969 4.9634 -1.0667 0
M  V30 25 Pb -1.0977 4.9674 -2.4641 0
M  V30 26 Pd -3.6524 -3.5459 4.6911 0
M  V30 27 Pb -4.4064 -3.1452 4.1910 0
M  V30 28 Pb -2.9520 -4.0458 5.2050 0
M  V30 29 Pb -3.6643 -4.2975 4.0364 0
M  V30 30 Pb -3.5790 -2.6984 5.2639 0
M  V30 31 Pd 1.7006 -3.8134 5.3164 0
M  V30 32 Pb 1.7653 -4.2278 4.4068 0
M  V30 33 Pb 1.0096 -4.4776 5.5865 0
M  V30 34 Pb 1.6583 -3.4685 6.2446 0
M  V30 35 Pb 2.2994 -3.0326 5.0499 0
M  V30 36 Pd -2.7784 1.3715 -5.0174 0
M  V30 37 Pb -3.0070 2.3103 -4.7531 0
M  V30 38 Pb -2.4773 0.4520 -5.2686 0
M  V30 39 Pb -2.4003 1.7225 -5.8732 0
M  V30 40 Pb -3.1058 0.9935 -4.1508 0
M  V30 41 Pd 3.6273 -1.9535 -5.6872 0
M  V30 42 Pb 4.5093 -1.4862 -5.6238 0
M  V30 43 Pb 3.4739 -1.8491 -4.7043 0
M  V30 44 Pb 2.6948 -2.2984 -5.7779 0
M  V30 45 Pb 3.7447 -1.9793 -6.6789 0
M  V30 46 Ag 3.5725 3.4431 -6.6927 0
M  V30 47 Fe 2.2213 4.1699 -4.8778 0
M  V30 48 Ag 0.8869 4.9270 -3.0629 0
M  V30 49 Ag -3.4482 3.7809 3.6096 0
M  V30 50 Fe -2.4802 4.4658 1.5544 0
M  V30 51 Ag -1.4739 5.0878 -0.5024 0
M  V30 52 Ag -4.8286 1.8004 3.9363 0
M  V30 53 Fe -5.3418 -0.4668 3.6100 0
M  V30 54 Ag -4.9396 -2.7668 3.8523 0
M  V30 55 Ag 1.7983 1.4400 6.7483 0
M  V30 56 Fe 1.6725 -0.8170 7.3832 0
M  V30 57 Ag 1.6275 -3.1119 6.8892 0
M  V30 58 Ag 2.2377 2.4952 -8.4045 0
M  V30 59 Fe 0.0254 2.2889 -7.5721 0
M  V30 60 Ag -2.0652 1.9693 -6.4959 0
M  V30 61 Ag -2.0021 -2.5271 -0.2289 0
M  V30 62 Fe -2.6898 -0.9308 -1.8505 0
M  V30 63 Ag -3.3068 0.6521 -3.5130 0
M  V30 64 Ag -2.1923 -0.2214 -5.4328 0
M  V30 65 Fe -0.1820 -1.4610 -5.6690 0
M  V30 66 Ag 1.9660 -2.4563 -5.8392 0
M  V30 67 Ag 0.5185 -2.6710 -0.2546 0
M  V30 68 Fe 1.9283 -2.1903 -2.1050 0
M  V30 69 Ag 3.3149 -1.7369 -3.9797 0
M  V30 70 Ag 2.2323 2.7132 3.5442 0
M  V30 71 Fe 1.5563 3.6088 1.4487 0
M  V30 72 Ag 0.9245 4.5112 -0.6577 0
M  V30 73 Ba 0.4754 -4.5941 1.1230 0
M  V30 74 Ga 1.1406 -4.5819 2.4402 0
M  V30 75 Ba 1.8219 -4.5876 3.7491 0
M  V30 76 Ba -1.6978 5.0079 -2.9153 0
M  V30 77 Ga -2.4212 4.0286 -3.7530 0
M  V30 78 Ba -3.1290 3.0329 -4.5846 0
M  V30 79 Ba 3.9680 0.6891 -8.7827 0
M  V30 80 Ga 3.9106 -0.6583 -8.1919 0
M  V30 81 Ba 3.8311 -1.9093 -7.4194 0
M  V30 82 Ba 5.2584 1.5481 -6.9987 0
M  V30 83 Ga 5.2859 0.2551 -6.2881 0
M  V30 84 Ba 5.1253 -1.0581 -5.6343 0
M  V30 85 Ba 2.8655 0.5548 4.7644 0
M  V30 86 Ga 2.7439 -0.9381 4.8341 0
M  V30 87 Ba 2.7450 -2.4375 4.8508 0
M  V30 88 Ba -3.4049 0.9454 5.7173 0
M  V30 89 Ga -3.4683 -0.5561 5.6227 0
M  V30 90 Ba -3.5151 -2.0592 5.6983 0
M  V30 91 Ba 0.8326 3.2954 5.6064 0
M  V30 92 Ga -0.6422 3.2920 5.5492 0
M  V30 93 Ba -2.1173 3.2934 5.5012 0
M  V30 94 Ba -2.0027 -4.7255 1.0350 0
M  V30 95 Ga -2.8324 -4.7981 2.2520 0
M  V30 96 Ba -3.6340 -4.8056 3.4895 0
M  V30 97 Ba -2.4734 -4.5116 5.5529 0
M  V30 98 Ga -1.0176 -4.7071 5.6884 0
M  V30 99 Ba 0.4390 -4.8950 5.8256 0
M  V30 END ATOM
M  V30 BEGIN BOND
M  V30 1 1 1 2
M  V30 2 1 1 3
M  V30 3 1 1 4
M  V30 4 1 1 5
M  V30 5 1 6 7
M  V30 6 1 6 8
M  V30 7 1 6 9
M  V30 8 1 6 10
M  V30 9 1 11 12
M  V30 10 1 11 13
M  V30 11 1 11 14
M  V30 12 1 11 15
M  V30 13 1 16 17
M  V30 14 1 16 18
M  V30 15 1 16 19
M  V30 16 1 16 20
M  V30 17 1 21 22
M  V30 18 1 21 23
M  V30 19 1 21 24
M  V30 20 1 21 25
M  V30 21 1 26 27
M  V30 22 1 26 28
M  V30 23 1 26 29
M  V30 24 1 26 30
M  V30 25 1 31 32
M  V30 26 1 31 33
M  V30 27 1 31 34
M  V30 28 1 31 35
M  V30 29 1 36 37
M  V30 30 1 36 38
M  V30 31 1 36 39
M  V30 32 1 36 40
M  V30 33 1 41 42
M  V30 34 1 41 43
M  V30 35 1 41 44
M  V30 36 1 41 45
M  V30 37 1 46 47
M  V30 38 1 47 48
M  V30 39 1 49 50
M  V30 40 1 50 51
M  V30 41 1 52 53
M  V30 42 1 53 54
M  V30 43 1 55 56
M  V30 44 1 56 57
M  V30 45 1 58 59
M  V30 46 1 59 60
M  V30 47 1 61 62
M  V30 48 1 62 63
M  V30 49 1 64 65
M  V30 50 1 65 66
M  V30 51 1 67 68
M  V30 52 1 68 69
M  V30 53 1 70 71
M  V30 54 1 71 72
M  V30 55 1 73 74
M  V30 56 1 74 75
M  V30 57 1 76 77
M  V30 58 1 77 78
M  V30 59 1 79 80
M  V30 60 1 80 81
M  V30 61 1 82 83
M  V30 62 1 83 84
M  V30 63 1 85 86
M  V30 64 1 86 87
M  V30 65 1 88 89
M  V30 66 1 89 90
M  V30 67 1 91 92
M  V30 68 1 92 93
M  V30 69 1 94 95
M  V30 70 1 95 96
M  V30 71 1 97 98
M  V30 72 1 98 99
M  V30 73 1 2 73
M  V30 74 1 3 67
M  V30 75 1 4 94
M  V30 76 1 5 61
M  V30 77 1 7 46
M  V30 78 1 8 82
M  V30 79 1 9 58
M  V30 80 1 10 79
M  V30 81 1 12 85
M  V30 82 1 13 70
M  V30 83 1 14 91
M  V30 84 1 15 55
M  V30 85 1 17 93
M  V30 86 1 18 52
M  V30 87 1 19 49
M  V30 88 1 20 88
M  V30 89 1 22 48
M  V30 90 1 23 72
M  V30 91 1 24 51
M  V30 92 1 25 76
M  V30 93 1 27 54
M  V30 94 1 28 97
M  V30 95 1 29 96
M  V30 96 1 30 90
M  V30 97 1 32 75
M  V30 98 1 33 99
M  V30 99 1 34 57
M  V30 100 1 35 87
M  V30 101 1 37 78
M  V30 102 1 38 64
M  V30 103 1 39 60
M  V30 104 1 40 63
M  V30 105 1 42 84
M  V30 106 1 43 69
M  V30 107 1 44 66
M  V30 108 1 45 81
M  V30 END BOND
M  V30 END CTAB
M  END

$$$$
