
     RDKit          3D

  0  0  0  0  0  0  0  0  0  0999 V3000
M  V30 BEGIN CTAB
M  V30 COUNTS 99 108 0 0 0
M  V30 BEGIN ATOM
M  V30 1 Pd -4.8792 1.5798 0.7007 0
M  V30 2 Pb -5.0963 0.6304 0.9341 0
M  V30 3 Pb -4.5400 1.7308 1.6324 0
M  V30 4 Pb -5.2234 1.4124 -0.2214 0
M  V30 5 Pb -4.6221 2.5021 0.4121 0
M  V30 6 Pd 3.7167 4.0610 5.9695 0
M  V30 7 Pb 3.4644 3.3750 5.2863 0
M  V30 8 Pb 3.9138 4.7795 6.6322 0
M  V30 9 Pb 4.1739 4.5927 5.2599 0
M  V30 10 Pb 3.0678 3.6471 6.6275 0
M  V30 11 Pd 1.8654 -6.5051 -1.3234 0
M  V30 12 Pb 1.2283 -6.3908 -0.5628 0
M  V30 13 Pb 2.5706 -6.0177 -0.8149 0
M  V30 14 Pb 2.5315 -6.5870 -2.0682 0
M  V30 15 Pb 1.1301 -6.9391 -1.8498 0
M  V30 16 Pd 3.2196 -3.1779 -5.0655 0
M  V30 17 Pb 3.7360 -3.9856 -4.7832 0
M  V30 18 Pb 2.6210 -2.4200 -5.3297 0
M  V30 19 Pb 3.9542 -2.5443 -4.8100 0
M  V30 20 Pb 2.4832 -3.7919 -5.3366 0
M  V30 21 Pd 4.3457 0.4223 -1.0180 0
M  V30 22 Pb 3.9200 0.6502 -0.1413 0
M  V30 23 Pb 4.5829 -0.4689 -0.6384 0
M  V30 24 Pb 4.7640 0.1541 -1.8883 0
M  V30 25 Pb 4.0660 1.3041 -1.4011 0
M  V30 26 Pd -3.9689 -2.7546 -5.3753 0
M  V30 27 Pb -3.2472 -2.1063 -5.6246 0
M  V30 28 Pb -4.6213 -3.4338 -5.0440 0
M  V30 29 Pb -4.5508 -2.0119 -5.0516 0
M  V30 30 Pb -3.3479 -3.4845 -5.6442 0
M  V30 31 Pd -3.3805 -5.7103 -1.1243 0
M  V30 32 Pb -3.9145 -5.0829 -0.5533 0
M  V30 33 Pb -4.0899 -5.6673 -1.8314 0
M  V30 34 Pb -2.8176 -6.3187 -1.6915 0
M  V30 35 Pb -2.6851 -5.7650 -0.4099 0
M  V30 36 Pd 0.5424 6.8823 0.2578 0
M  V30 37 Pb 1.0277 6.3904 -0.4653 0
M  V30 38 Pb 0.0357 7.3071 1.0094 0
M  V30 39 Pb 1.4275 7.0151 0.7053 0
M  V30 40 Pb -0.3485 6.6650 -0.1361 0
M  V30 41 Pd -1.4443 5.1951 6.9625 0
M  V30 42 Pb -0.9865 5.8947 7.5056 0
M  V30 43 Pb -1.9122 4.4808 6.4368 0
M  V30 44 Pb -1.8438 5.9099 6.3931 0
M  V30 45 Pb -0.8442 4.5009 7.3886 0
M  V30 46 Ag 3.2401 2.8818 4.7669 0
M  V30 47 Fe 3.4540 1.8492 2.6379 0
M  V30 48 Ag 3.5984 0.7690 0.5268 0
M  V30 49 Ag -5.2393 -0.0953 1.0675 0
M  V30 50 Fe -4.7920 -2.3596 0.4976 0
M  V30 51 Ag -4.2990 -4.6013 -0.1216 0
M  V30 52 Ag 3.8292 1.9590 -1.6829 0
M  V30 53 Fe 2.6344 3.9891 -1.3725 0
M  V30 54 Ag 1.4195 5.9896 -0.9640 0
M  V30 55 Ag 2.0893 -1.9253 -5.5228 0
M  V30 56 Fe -0.2674 -1.6662 -5.6951 0
M  V30 57 Ag -2.6435 -1.6813 -5.7674 0
M  V30 58 Ag 3.8558 5.3377 7.1163 0
M  V30 59 Fe 1.8416 6.2881 7.8777 0
M  V30 60 Ag -0.5123 6.3346 7.8700 0
M  V30 61 Ag 1.8998 -4.2097 -5.5409 0
M  V30 62 Fe -0.4612 -4.2452 -5.7331 0
M  V30 63 Ag -2.8139 -3.9785 -5.8046 0
M  V30 64 Ag 4.3691 5.0491 4.7004 0
M  V30 65 Fe 3.3770 6.1159 2.8257 0
M  V30 66 Ag 2.0983 7.0221 1.0420 0
M  V30 67 Ag -5.4720 1.2665 -0.9120 0
M  V30 68 Fe -5.2710 -0.0545 -2.8723 0
M  V30 69 Ag -4.9526 -1.4516 -4.7629 0
M  V30 70 Ag -4.4122 3.1660 0.1329 0
M  V30 71 Fe -2.7585 4.8477 -0.1388 0
M  V30 72 Ag -1.0410 6.4739 -0.3454 0
M  V30 73 Ag -0.4086 7.5534 1.5630 0
M  V30 74 Fe -1.2906 7.1203 3.7253 0
M  V30 75 Ag -1.9909 6.4449 5.8915 0
M  V30 76 Ag -4.3019 1.7959 2.3437 0
M  V30 77 Fe -3.2681 2.9239 4.1641 0
M  V30 78 Ag -2.2647 3.9232 6.0745 0
M  V30 79 Ag 3.0946 -5.6008 -0.4849 0
M  V30 80 Fe 3.9864 -3.4086 -0.3428 0
M  V30 81 Ag 4.7086 -1.1504 -0.3593 0
M  V30 82 Ba 4.4990 -2.0508 -4.6456 0
M  V30 83 Ga 4.7790 -1.0659 -3.5789 0
M  V30 84 Ba 5.0881 -0.0725 -2.5281 0
M  V30 85 Ba 0.5474 -7.2355 -2.2242 0
M  V30 86 Ga -0.9152 -7.0110 -2.1726 0
M  V30 87 Ba -2.3743 -6.7695 -2.1031 0
M  V30 88 Ba 2.5324 3.3788 7.1014 0
M  V30 89 Ga 1.0987 3.6931 7.3792 0
M  V30 90 Ba -0.3352 4.0024 7.6620 0
M  V30 91 Ba 0.7478 -6.2922 0.0029 0
M  V30 92 Ga -0.7040 -6.0554 0.0781 0
M  V30 93 Ba -2.1575 -5.8200 0.1181 0
M  V30 94 Ba 3.0851 -6.6016 -2.5783 0
M  V30 95 Ga 3.5815 -5.6415 -3.5858 0
M  V30 96 Ba 4.0307 -4.6445 -4.5794 0
M  V30 97 Ba -5.0584 -3.9659 -4.7506 0
M  V30 98 Ga -4.8709 -4.8106 -3.5551 0
M  V30 99 Ba -4.6335 -5.6293 -2.3503 0
M  V30 END ATOM
M  V30 BEGIN BOND
M  V30 1 1 1 2
M  V30 2 1 1 3
M  V30 3 1 1 4
M  V30 4 1 1 5
M  V30 5 1 6 7
M  V30 6 1 6 8
M  V30 7 1 6 9
M  V30 8 1 6 10
M  V30 9 1 11 12
M  V30 10 1 11 13
M  V30 11 1 11 14
M  V30 12 1 11 15
M  V30 13 1 16 17
M  V30 14 1 16 18
M  V30 15 1 16 19
M  V30 16 1 16 20
M  V30 17 1 21 22
M  V30 18 1 21 23
M  V30 19 1 21 24
M  V30 20 1 21 25
M  V30 21 1 26 27
M  V30 22 1 26 28
M  V30 23 1 26 29
M  V30 24 1 26 30
M  V30 25 1 31 32
M  V30 26 1 31 33
M  V30 27 1 31 34
M  V30 28 1 31 35
M  V30 29 1 36 37
M  V30 30 1 36 38
M  V30 31 1 36 39
M  V30 32 1 36 40
M  V30 33 1 41 42
M  V30 34 1 41 43
M  V30 35 1 41 44
M  V30 36 1 41 45
M  V30 37 1 46 47
M  V30 38 1 47 48
M  V30 39 1 49 50
M  V30 40 1 50 51
M  V30 41 1 52 53
M  V30 42 1 53 54
M  V30 43 1 55 56
M  V30 44 1 56 57
M  V30 45 1 58 59
M  V30 46 1 59 60
M  V30 47 1 61 62
M  V30 48 1 62 63
M  V30 49 1 64 65
M  V30 50 1 65 66
M  V30 51 1 67 68
M  V30 52 1 68 69
M  V30 53 1 70 71
M  V30 54 1 71 72
M  V30 55 1 73 74
M  V30 56 1 74 75
M  V30 57 1 76 77
M  V30 58 1 77 78
M  V30 59 1 79 80
M  V30 60 1 80 81
M  V30 61 1 82 83
M  V30 62 1 83 84
M  V30 63 1 85 86
M  V30 64 1 86 87
M  V30 65 1 88 89
M  V30 66 1 89 90
M  V30 67 1 91 92
M  V30 68 1 92 93
M  V30 69 1 94 95
M  V30 70 1 95 96
M  V30 71 1 97 98
M  V30 72 1 98 99
M  V30 73 1 2 49
M  V30 74 1 3 76
M  V30 75 1 4 67
M  V30 76 1 5 70
M  V30 77 1 7 46
M  V30 78 1 8 58
M  V30 79 1 9 64
M  V30 80 1 10 88
M  V30 81 1 12 91
M  V30 82 1 13 79
M  V30 83 1 14 94
M  V30 84 1 15 85
M  V30 85 1 17 96
M  V30 86 1 18 55
M  V30 87 1 19 82
M  V30 88 1 20 61
M  V30 89 1 22 48
M  V30 90 1 23 81
M  V30 91 1 24 84
M  V30 92 1 25 52
M  V30 93 1 27 57
M  V30 94 1 28 97
M  V30 95 1 29 69
M  V30 96 1 30 63
M  V30 97 1 32 51
M  V30 98 1 33 99
M  V30 99 1 34 87
M  V30 100 1 35 93
M  V30 101 1 37 54
M  V30 102 1 38 73
M  V30 103 1 39 66
M  V30 104 1 40 72
M  V30 105 1 42 60
M  V30 106 1 43 78
M  V30 107 1 44 75
M  V30 108 1 45 90
M  V30 END BOND
M  V30 END CTAB
M  END

$$$$
