
     RDKit          3D

  0  0  0  0  0  0  0  0  0  0999 V3000
M  V30 BEGIN CTAB
M  V30 COUNTS 99 108 0 0 0
M  V30 BEGIN ATOM
M  V30 1 Pd 2.4394 2.6144 -5.5404 0
M  V30 2 Pb 1.7740 2.9636 -4.8892 0
M  V30 3 Pb 1.9121 3.0683 -6.2564 0
M  V30 4 Pb 3.0632 2.2822 -6.2511 0
M  V30 5 Pb 2.9263 2.0923 -4.8301 0
M  V30 6 Pd 0.9375 0.2822 -9.5971 0
M  V30 7 Pb 1.2380 -0.6429 -9.8041 0
M  V30 8 Pb 1.8900 0.5753 -9.5155 0
M  V30 9 Pb 0.6587 1.2152 -9.3767 0
M  V30 10 Pb -0.0171 -0.0559 -9.5043 0
M  V30 11 Pd -1.1328 -2.8360 3.4866 0
M  V30 12 Pb -2.0850 -2.6140 3.6851 0
M  V30 13 Pb -0.1622 -2.9131 3.2497 0
M  V30 14 Pb -0.9534 -3.0693 4.4525 0
M  V30 15 Pb -1.3820 -2.8118 2.5179 0
M  V30 16 Pd 0.3672 -1.5015 8.8459 0
M  V30 17 Pb 1.3194 -1.7699 8.7315 0
M  V30 18 Pb -0.5715 -1.1869 8.9546 0
M  V30 19 Pb 0.6689 -0.5719 9.1049 0
M  V30 20 Pb 0.0603 -2.3393 8.3954 0
M  V30 21 Pd -2.6728 0.1430 -1.1446 0
M  V30 22 Pb -2.0955 0.4277 -0.3824 0
M  V30 23 Pb -3.2182 -0.1128 -1.9462 0
M  V30 24 Pb -2.6647 -0.7976 -0.8168 0
M  V30 25 Pb -2.5649 1.0665 -1.4917 0
M  V30 26 Pd -2.1640 -2.7838 -5.9427 0
M  V30 27 Pb -1.5722 -3.4241 -6.4205 0
M  V30 28 Pb -1.8599 -3.1856 -5.0833 0
M  V30 29 Pb -2.3074 -2.2898 -6.8191 0
M  V30 30 Pb -2.8001 -2.1780 -5.4572 0
M  V30 31 Pd -2.7972 1.9467 4.2775 0
M  V30 32 Pb -2.2360 1.8461 3.4577 0
M  V30 33 Pb -2.2722 2.7638 4.5315 0
M  V30 34 Pb -3.2934 1.0975 4.0838 0
M  V30 35 Pb -3.2593 1.9470 5.1577 0
M  V30 36 Pd 2.5080 -0.7220 -0.4468 0
M  V30 37 Pb 2.8789 0.0619 0.0497 0
M  V30 38 Pb 2.3457 -1.2240 0.4129 0
M  V30 39 Pb 2.8288 -0.2879 -1.3013 0
M  V30 40 Pb 2.0430 -1.4706 -0.9180 0
M  V30 41 Pd 2.3177 2.9898 6.0883 0
M  V30 42 Pb 1.9976 2.7448 7.0184 0
M  V30 43 Pb 3.1316 2.4405 6.2550 0
M  V30 44 Pb 1.4819 3.5138 5.8985 0
M  V30 45 Pb 2.6430 3.1339 5.1560 0
M  V30 46 Ag 3.1008 0.6778 0.4144 0
M  V30 47 Fe 3.0467 1.9711 2.4039 0
M  V30 48 Ag 2.9086 3.1538 4.4570 0
M  V30 49 Ag 1.3633 -1.3713 -9.8292 0
M  V30 50 Fe 0.3812 -3.0630 -8.5231 0
M  V30 51 Ag -1.0977 -3.7986 -6.8479 0
M  V30 52 Ag -1.5154 -3.4317 -4.4681 0
M  V30 53 Fe 0.0472 -2.7959 -2.7992 0
M  V30 54 Ag 1.6225 -2.0231 -1.2012 0
M  V30 55 Ag 1.2139 3.2155 -4.4681 0
M  V30 56 Fe -0.6188 2.6344 -3.0885 0
M  V30 57 Ag -2.3441 1.7268 -1.7477 0
M  V30 58 Ag 2.0449 -1.7926 8.5820 0
M  V30 59 Fe 3.3524 -0.1532 7.5091 0
M  V30 60 Ag 3.6324 1.9209 6.4275 0
M  V30 61 Ag -1.2418 -0.8627 8.9768 0
M  V30 62 Fe -2.6098 0.5093 7.6198 0
M  V30 63 Ag -3.4947 1.7987 5.8459 0
M  V30 64 Ba -0.8700 -3.3737 5.1440 0
M  V30 65 Ga -0.5082 -3.1016 6.5556 0
M  V30 66 Ba -0.1629 -2.9283 7.9872 0
M  V30 67 Ba -0.7326 -0.3160 -9.4076 0
M  V30 68 Ga -1.5207 -1.1201 -8.4206 0
M  V30 69 Ba -2.3776 -1.9137 -7.4838 0
M  V30 70 Ba 1.4878 3.3491 -6.8050 0
M  V30 71 Ga 0.9642 2.6936 -8.0146 0
M  V30 72 Ba 0.5081 1.9220 -9.1824 0
M  V30 73 Ba -1.8740 3.3696 4.7389 0
M  V30 74 Ga -0.5036 3.6237 5.2394 0
M  V30 75 Ba 0.8595 3.9107 5.7417 0
M  V30 76 Ba 0.8623 0.1511 9.2478 0
M  V30 77 Ga 1.3316 1.3283 8.4599 0
M  V30 78 Ba 1.8003 2.5410 7.7277 0
M  V30 79 Ba 3.4799 2.0579 -6.8363 0
M  V30 80 Ga 3.0956 1.4222 -8.1135 0
M  V30 81 Ba 2.5904 0.7859 -9.3476 0
M  V30 82 Ba -3.6244 -0.2724 -2.5595 0
M  V30 83 Ga -3.4360 -1.0220 -3.8207 0
M  V30 84 Ba -3.3102 -1.7535 -5.1002 0
M  V30 85 Ba 3.3200 1.6747 -4.3369 0
M  V30 86 Ga 3.1546 0.8656 -3.1020 0
M  V30 87 Ba 3.2099 0.0168 -1.8847 0
M  V30 88 Ba -2.7833 -2.3574 3.7654 0
M  V30 89 Ga -3.2627 -0.9672 3.8931 0
M  V30 90 Ba -3.6669 0.4473 4.0162 0
M  V30 91 Ba -1.6372 0.6940 0.1454 0
M  V30 92 Ga -1.7393 1.2074 1.5223 0
M  V30 93 Ba -1.7517 1.7368 2.8969 0
M  V30 94 Ba -1.6353 -2.9106 1.8174 0
M  V30 95 Ga -2.1079 -2.1658 0.6367 0
M  V30 96 Ba -2.5930 -1.5045 -0.5882 0
M  V30 97 Ba 0.5688 -2.9092 3.0701 0
M  V30 98 Ga 1.4016 -2.2632 2.0270 0
M  V30 99 Ba 2.3218 -1.6623 1.0319 0
M  V30 END ATOM
M  V30 BEGIN BOND
M  V30 1 1 1 2
M  V30 2 1 1 3
M  V30 3 1 1 4
M  V30 4 1 1 5
M  V30 5 1 6 7
M  V30 6 1 6 8
M  V30 7 1 6 9
M  V30 8 1 6 10
M  V30 9 1 11 12
M  V30 10 1 11 13
M  V30 11 1 11 14
M  V30 12 1 11 15
M  V30 13 1 16 17
M  V30 14 1 16 18
M  V30 15 1 16 19
M  V30 16 1 16 20
M  V30 17 1 21 22
M  V30 18 1 21 23
M  V30 19 1 21 24
M  V30 20 1 21 25
M  V30 21 1 26 27
M  V30 22 1 26 28
M  V30 23 1 26 29
M  V30 24 1 26 30
M  V30 25 1 31 32
M  V30 26 1 31 33
M  V30 27 1 31 34
M  V30 28 1 31 35
M  V30 29 1 36 37
M  V30 30 1 36 38
M  V30 31 1 36 39
M  V30 32 1 36 40
M  V30 33 1 41 42
M  V30 34 1 41 43
M  V30 35 1 41 44
M  V30 36 1 41 45
M  V30 37 1 46 47
M  V30 38 1 47 48
M  V30 39 1 49 50
M  V30 40 1 50 51
M  V30 41 1 52 53
M  V30 42 1 53 54
M  V30 43 1 55 56
M  V30 44 1 56 57
M  V30 45 1 58 59
M  V30 46 1 59 60
M  V30 47 1 61 62
M  V30 48 1 62 63
M  V30 49 1 64 65
M  V30 50 1 65 66
M  V30 51 1 67 68
M  V30 52 1 68 69
M  V30 53 1 70 71
M  V30 54 1 71 72
M  V30 55 1 73 74
M  V30 56 1 74 75
M  V30 57 1 76 77
M  V30 58 1 77 78
M  V30 59 1 79 80
M  V30 60 1 80 81
M  V30 61 1 82 83
M  V30 62 1 83 84
M  V30 63 1 85 86
M  V30 64 1 86 87
M  V30 65 1 88 89
M  V30 66 1 89 90
M  V30 67 1 91 92
M  V30 68 1 92 93
M  V30 69 1 94 95
M  V30 70 1 95 96
M  V30 71 1 97 98
M  V30 72 1 98 99
M  V30 73 1 2 55
M  V30 74 1 3 70
M  V30 75 1 4 79
M  V30 76 1 5 85
M  V30 77 1 7 49
M  V30 78 1 8 81
M  V30 79 1 9 72
M  V30 80 1 10 67
M  V30 81 1 12 88
M  V30 82 1 13 97
M  V30 83 1 14 64
M  V30 84 1 15 94
M  V30 85 1 17 58
M  V30 86 1 18 61
M  V30 87 1 19 76
M  V30 88 1 20 66
M  V30 89 1 22 91
M  V30 90 1 23 82
M  V30 91 1 24 96
M  V30 92 1 25 57
M  V30 93 1 27 51
M  V30 94 1 28 52
M  V30 95 1 29 69
M  V30 96 1 30 84
M  V30 97 1 32 93
M  V30 98 1 33 73
M  V30 99 1 34 90
M  V30 100 1 35 63
M  V30 101 1 37 46
M  V30 102 1 38 99
M  V30 103 1 39 87
M  V30 104 1 40 54
M  V30 105 1 42 78
M  V30 106 1 43 60
M  V30 107 1 44 75
M  V30 108 1 45 48
M  V30 END BOND
M  V30 END CTAB
M  END

$$$$
