
     RDKit          3D

  0  0  0  0  0  0  0  0  0  0999 V3000
M  V30 BEGIN CTAB
M  V30 COUNTS 99 108 0 0 0
M  V30 BEGIN ATOM
M  V30 1 Pd 4.8427 -0.1170 4.3234 0
M  V30 2 Pb 5.0262 -0.7022 3.5240 0
M  V30 3 Pb 4.7247 0.3255 5.2057 0
M  V30 4 Pb 5.6747 0.4343 4.2228 0
M  V30 5 Pb 3.9138 -0.5197 4.4197 0
M  V30 6 Pd 1.0938 1.7888 -3.9735 0
M  V30 7 Pb 1.9376 1.2816 -4.1544 0
M  V30 8 Pb 0.2060 2.2500 -3.7889 0
M  V30 9 Pb 0.6484 1.2125 -4.6478 0
M  V30 10 Pb 1.5503 2.4473 -3.3674 0
M  V30 11 Pd -3.5773 -0.4095 1.1872 0
M  V30 12 Pb -2.7490 0.1351 1.0789 0
M  V30 13 Pb -4.1256 0.3806 0.9049 0
M  V30 14 Pb -3.0016 -1.1788 1.4867 0
M  V30 15 Pb -4.4299 -0.9219 1.3023 0
M  V30 16 Pd 5.4210 4.5215 1.9407 0
M  V30 17 Pb 4.8572 4.7922 1.1595 0
M  V30 18 Pb 4.7367 4.9350 2.5425 0
M  V30 19 Pb 6.0395 4.0743 1.3082 0
M  V30 20 Pb 5.9606 4.1024 2.6766 0
M  V30 21 Pd -0.2132 1.9337 4.7122 0
M  V30 22 Pb 0.0910 0.9687 4.7359 0
M  V30 23 Pb -0.3077 1.8749 3.7193 0
M  V30 24 Pb -0.2047 2.9276 4.6581 0
M  V30 25 Pb -0.0531 2.0208 5.6910 0
M  V30 26 Pd -0.8617 -4.4347 -1.1169 0
M  V30 27 Pb -0.9980 -4.6806 -2.0734 0
M  V30 28 Pb 0.1302 -4.3876 -1.2583 0
M  V30 29 Pb -1.8434 -4.6067 -0.9673 0
M  V30 30 Pb -0.8122 -4.1176 -0.1691 0
M  V30 31 Pd -6.4785 -3.1256 -2.1629 0
M  V30 32 Pb -5.8683 -3.7877 -1.7173 0
M  V30 33 Pb -6.7509 -2.8296 -1.2494 0
M  V30 34 Pb -7.0367 -2.4180 -2.5914 0
M  V30 35 Pb -6.1214 -3.4271 -3.0436 0
M  V30 36 Pd -4.9664 1.6555 -3.4974 0
M  V30 37 Pb -4.7172 1.2556 -4.3709 0
M  V30 38 Pb -5.1854 1.9830 -2.5792 0
M  V30 39 Pb -5.8587 1.2073 -3.5573 0
M  V30 40 Pb -4.0613 2.1205 -3.4488 0
M  V30 41 Pd 4.5255 -1.7619 -1.3958 0
M  V30 42 Pb 4.3228 -1.4527 -2.3257 0
M  V30 43 Pb 3.9136 -2.5510 -1.4794 0
M  V30 44 Pb 5.1920 -1.0280 -1.3425 0
M  V30 45 Pb 4.7706 -2.0262 -0.4594 0
M  V30 46 Ag 6.4249 3.6626 0.8288 0
M  V30 47 Fe 6.2184 1.6072 -0.3194 0
M  V30 48 Ag 5.6901 -0.4789 -1.2976 0
M  V30 49 Ag 4.5368 0.6135 5.8625 0
M  V30 50 Fe 2.5208 1.4729 6.7139 0
M  V30 51 Ag 0.2772 2.0662 6.3501 0
M  V30 52 Ag 0.2233 0.8609 -5.1408 0
M  V30 53 Fe -2.1024 0.6486 -5.4448 0
M  V30 54 Ag -4.3862 0.9348 -4.9483 0
M  V30 55 Ag 4.1428 5.2131 2.9080 0
M  V30 56 Fe 2.0236 4.6474 3.8149 0
M  V30 57 Ag 0.0307 3.6335 4.6085 0
M  V30 58 Ag -1.2749 -4.7862 -2.7558 0
M  V30 59 Fe -3.4352 -4.3685 -3.6178 0
M  V30 60 Ag -5.6983 -3.6888 -3.5969 0
M  V30 61 Ag 1.8559 3.0037 -2.9588 0
M  V30 62 Fe 3.1448 3.9434 -1.1940 0
M  V30 63 Ag 4.4254 4.9182 0.5578 0
M  V30 64 Ba 5.1768 -1.2459 3.0182 0
M  V30 65 Ga 5.0484 -1.6583 1.6008 0
M  V30 66 Ba 5.0025 -2.2211 0.2304 0
M  V30 67 Ba 3.1996 -0.7891 4.5002 0
M  V30 68 Ga 1.8111 -0.2421 4.6167 0
M  V30 69 Ba 0.4114 0.2748 4.7355 0
M  V30 70 Ba -2.5212 -1.7113 1.7281 0
M  V30 71 Ga -1.6937 -2.7867 1.1343 0
M  V30 72 Ba -0.8705 -3.8625 0.5355 0
M  V30 73 Ba 6.2303 0.9452 4.2230 0
M  V30 74 Ga 6.3360 2.3238 3.6862 0
M  V30 75 Ba 6.4062 3.6986 3.1342 0
M  V30 76 Ba -2.5561 -4.8237 -0.8293 0
M  V30 77 Ga -3.9696 -4.4937 -1.1314 0
M  V30 78 Ba -5.4187 -4.2727 -1.3542 0
M  V30 79 Ba -4.5337 0.9794 0.7027 0
M  V30 80 Ga -4.9385 1.5940 -0.5770 0
M  V30 81 Ba -5.3277 2.1856 -1.8721 0
M  V30 82 Ba -5.1042 -1.2469 1.3704 0
M  V30 83 Ga -6.0106 -1.9454 0.4391 0
M  V30 84 Ba -6.8733 -2.6393 -0.5359 0
M  V30 85 Ba 2.5238 0.8468 -4.3326 0
M  V30 86 Ga 3.3676 -0.1580 -3.6549 0
M  V30 87 Ba 4.2332 -1.1692 -3.0153 0
M  V30 88 Ba 0.8670 -4.4624 -1.3949 0
M  V30 89 Ga 2.1524 -3.7354 -1.4487 0
M  V30 90 Ba 3.5209 -3.1876 -1.5553 0
M  V30 91 Ba -2.1342 0.5546 1.0135 0
M  V30 92 Ga -1.2386 1.1970 1.9899 0
M  V30 93 Ba -0.3474 1.8369 2.9720 0
M  V30 94 Ba -7.4178 -1.8534 -2.9006 0
M  V30 95 Ga -7.0009 -0.4883 -3.2674 0
M  V30 96 Ba -6.5228 0.8625 -3.6120 0
M  V30 97 Ba -0.4415 2.6316 -3.6367 0
M  V30 98 Ga -1.9266 2.4831 -3.5436 0
M  V30 99 Ba -3.4142 2.5309 -3.4006 0
M  V30 END ATOM
M  V30 BEGIN BOND
M  V30 1 1 1 2
M  V30 2 1 1 3
M  V30 3 1 1 4
M  V30 4 1 1 5
M  V30 5 1 6 7
M  V30 6 1 6 8
M  V30 7 1 6 9
M  V30 8 1 6 10
M  V30 9 1 11 12
M  V30 10 1 11 13
M  V30 11 1 11 14
M  V30 12 1 11 15
M  V30 13 1 16 17
M  V30 14 1 16 18
M  V30 15 1 16 19
M  V30 16 1 16 20
M  V30 17 1 21 22
M  V30 18 1 21 23
M  V30 19 1 21 24
M  V30 20 1 21 25
M  V30 21 1 26 27
M  V30 22 1 26 28
M  V30 23 1 26 29
M  V30 24 1 26 30
M  V30 25 1 31 32
M  V30 26 1 31 33
M  V30 27 1 31 34
M  V30 28 1 31 35
M  V30 29 1 36 37
M  V30 30 1 36 38
M  V30 31 1 36 39
M  V30 32 1 36 40
M  V30 33 1 41 42
M  V30 34 1 41 43
M  V30 35 1 41 44
M  V30 36 1 41 45
M  V30 37 1 46 47
M  V30 38 1 47 48
M  V30 39 1 49 50
M  V30 40 1 50 51
M  V30 41 1 52 53
M  V30 42 1 53 54
M  V30 43 1 55 56
M  V30 44 1 56 57
M  V30 45 1 58 59
M  V30 46 1 59 60
M  V30 47 1 61 62
M  V30 48 1 62 63
M  V30 49 1 64 65
M  V30 50 1 65 66
M  V30 51 1 67 68
M  V30 52 1 68 69
M  V30 53 1 70 71
M  V30 54 1 71 72
M  V30 55 1 73 74
M  V30 56 1 74 75
M  V30 57 1 76 77
M  V30 58 1 77 78
M  V30 59 1 79 80
M  V30 60 1 80 81
M  V30 61 1 82 83
M  V30 62 1 83 84
M  V30 63 1 85 86
M  V30 64 1 86 87
M  V30 65 1 88 89
M  V30 66 1 89 90
M  V30 67 1 91 92
M  V30 68 1 92 93
M  V30 69 1 94 95
M  V30 70 1 95 96
M  V30 71 1 97 98
M  V30 72 1 98 99
M  V30 73 1 2 64
M  V30 74 1 3 49
M  V30 75 1 4 73
M  V30 76 1 5 67
M  V30 77 1 7 85
M  V30 78 1 8 97
M  V30 79 1 9 52
M  V30 80 1 10 61
M  V30 81 1 12 91
M  V30 82 1 13 79
M  V30 83 1 14 70
M  V30 84 1 15 82
M  V30 85 1 17 63
M  V30 86 1 18 55
M  V30 87 1 19 46
M  V30 88 1 20 75
M  V30 89 1 22 69
M  V30 90 1 23 93
M  V30 91 1 24 57
M  V30 92 1 25 51
M  V30 93 1 27 58
M  V30 94 1 28 88
M  V30 95 1 29 76
M  V30 96 1 30 72
M  V30 97 1 32 78
M  V30 98 1 33 84
M  V30 99 1 34 94
M  V30 100 1 35 60
M  V30 101 1 37 54
M  V30 102 1 38 81
M  V30 103 1 39 96
M  V30 104 1 40 99
M  V30 105 1 42 87
M  V30 106 1 43 90
M  V30 107 1 44 48
M  V30 108 1 45 66
M  V30 END BOND
M  V30 END CTAB
M  END

$$$$
