
     RDKit          3D

  0  0  0  0  0  0  0  0  0  0999 V3000
M  V30 BEGIN CTAB
M  V30 COUNTS 99 108 0 0 0
M  V30 BEGIN ATOM
M  V30 1 Pd -1.3067 -2.3941 -4.0900 0
M  V30 2 Pb -1.7769 -3.1489 -4.5436 0
M  V30 3 Pb -2.1461 -2.2329 -3.5690 0
M  V30 4 Pb -0.4063 -2.7709 -4.3667 0
M  V30 5 Pb -0.8634 -1.5882 -3.6966 0
M  V30 6 Pd 0.2413 1.7461 5.2150 0
M  V30 7 Pb -0.4981 1.0994 5.3905 0
M  V30 8 Pb 0.8336 1.0023 5.5014 0
M  V30 9 Pb -0.3930 2.4963 4.9945 0
M  V30 10 Pb 1.0607 2.2813 4.9836 0
M  V30 11 Pd 3.6914 -0.5552 -1.8519 0
M  V30 12 Pb 2.7892 -0.4400 -2.2638 0
M  V30 13 Pb 4.0315 0.1908 -2.4176 0
M  V30 14 Pb 4.5659 -0.5365 -1.3743 0
M  V30 15 Pb 3.3194 -1.2843 -1.2715 0
M  V30 16 Pd -3.7932 -0.0708 -0.3374 0
M  V30 17 Pb -3.0520 0.1312 -0.9763 0
M  V30 18 Pb -4.5674 -0.3273 0.2348 0
M  V30 19 Pb -4.1547 0.8600 -0.3456 0
M  V30 20 Pb -3.4086 -0.9945 -0.1983 0
M  V30 21 Pd 0.6685 5.3985 -3.5734 0
M  V30 22 Pb 1.6016 5.1885 -3.8458 0
M  V30 23 Pb 0.9086 6.3242 -3.2947 0
M  V30 24 Pb 0.4950 4.4107 -3.5849 0
M  V30 25 Pb -0.2659 5.5750 -3.2488 0
M  V30 26 Pd 1.1781 -5.6680 -1.3059 0
M  V30 27 Pb 1.8610 -5.1715 -0.7664 0
M  V30 28 Pb 0.5802 -6.3050 -1.7855 0
M  V30 29 Pb 1.6111 -5.4183 -2.1810 0
M  V30 30 Pb 0.4983 -5.5798 -0.5817 0
M  V30 31 Pd -2.7365 -3.5059 1.3105 0
M  V30 32 Pb -1.7490 -3.5584 1.1344 0
M  V30 33 Pb -2.5728 -3.4278 2.2912 0
M  V30 34 Pb -3.7046 -3.4208 1.5286 0
M  V30 35 Pb -2.9786 -3.3464 0.3396 0
M  V30 36 Pd 4.5846 -0.2166 3.2001 0
M  V30 37 Pb 4.0606 -0.5289 3.9822 0
M  V30 38 Pb 4.6378 -1.1497 2.8483 0
M  V30 39 Pb 4.4158 0.7339 3.4893 0
M  V30 40 Pb 5.1776 0.0370 2.4402 0
M  V30 41 Pd -2.3641 5.2051 1.2314 0
M  V30 42 Pb -2.2980 4.9554 2.2026 0
M  V30 43 Pb -2.4244 5.4501 0.2570 0
M  V30 44 Pb -3.1186 4.5721 1.0521 0
M  V30 45 Pb -1.6691 5.9156 1.3282 0
M  V30 46 Ag 2.4092 -4.9052 -0.3251 0
M  V30 47 Fe 3.4991 -3.3439 1.0962 0
M  V30 48 Ag 4.6414 -1.8232 2.5207 0
M  V30 49 Ag 2.9963 -1.8198 -0.8510 0
M  V30 50 Fe 1.0041 -2.7155 0.0938 0
M  V30 51 Ag -1.0016 -3.5924 1.0277 0
M  V30 52 Ag -0.5278 -0.9726 -3.4290 0
M  V30 53 Fe -0.1118 1.3665 -3.5332 0
M  V30 54 Ag 0.4568 3.6730 -3.4342 0
M  V30 55 Ag 1.0118 6.9015 -2.8387 0
M  V30 56 Fe 0.1181 7.1016 -0.6595 0
M  V30 57 Ag -1.1779 6.4662 1.2139 0
M  V30 58 Ag -3.1256 -1.6718 -0.0005 0
M  V30 59 Fe -1.6343 -3.5281 -0.1439 0
M  V30 60 Ag -0.0961 -5.3508 -0.1827 0
M  V30 61 Ag 4.2342 0.7881 -2.8149 0
M  V30 62 Fe 3.4519 2.9070 -3.5233 0
M  V30 63 Ag 2.2721 4.9041 -3.9947 0
M  V30 64 Ag 2.1054 -0.2770 -2.5222 0
M  V30 65 Fe -0.2052 -0.0280 -2.0366 0
M  V30 66 Ag -2.5024 0.1993 -1.4815 0
M  V30 67 Ag -2.0456 -3.8043 -4.7603 0
M  V30 68 Fe -1.3671 -5.8431 -3.8251 0
M  V30 69 Ag 0.1072 -6.6877 -2.2095 0
M  V30 70 Ag -0.9285 0.4940 5.4859 0
M  V30 71 Fe -1.7929 -1.4174 4.3751 0
M  V30 72 Ag -2.5358 -3.2082 3.0056 0
M  V30 73 Ba -2.7526 -2.2465 -3.1216 0
M  V30 74 Ga -2.9665 -2.6812 -1.7147 0
M  V30 75 Ba -3.2750 -3.1060 -0.3228 0
M  V30 76 Ba -0.8961 3.0542 4.9047 0
M  V30 77 Ga -1.5402 3.8949 3.8681 0
M  V30 78 Ba -2.2587 4.8001 2.9401 0
M  V30 79 Ba 1.7220 2.6019 4.8031 0
M  V30 80 Ga 2.9840 2.0418 4.2527 0
M  V30 81 Ba 4.2247 1.4366 3.7014 0
M  V30 82 Ba 1.2501 0.4278 5.7228 0
M  V30 83 Ga 2.4628 -0.1883 5.1828 0
M  V30 84 Ba 3.6746 -0.7430 4.5784 0
M  V30 85 Ba 5.2004 -0.4016 -1.0033 0
M  V30 86 Ga 5.4635 -0.1400 0.4207 0
M  V30 87 Ba 5.6439 0.1065 1.8601 0
M  V30 88 Ba -4.4698 1.5329 -0.2479 0
M  V30 89 Ga -4.0529 2.8449 0.2852 0
M  V30 90 Ba -3.7146 4.1826 0.8100 0
M  V30 91 Ba 0.2660 -3.1213 -4.4836 0
M  V30 92 Ga 1.0578 -4.1202 -3.6965 0
M  V30 93 Ba 1.7959 -5.1174 -2.8570 0
M  V30 94 Ba -0.9645 5.7194 -3.0024 0
M  V30 95 Ga -1.7023 5.6614 -1.7180 0
M  V30 96 Ba -2.5059 5.6307 -0.4729 0
M  V30 97 Ba -5.1106 -0.6300 0.6441 0
M  V30 98 Ga -4.9461 -1.9498 1.2467 0
M  V30 99 Ba -4.4087 -3.2357 1.6820 0
M  V30 END ATOM
M  V30 BEGIN BOND
M  V30 1 1 1 2
M  V30 2 1 1 3
M  V30 3 1 1 4
M  V30 4 1 1 5
M  V30 5 1 6 7
M  V30 6 1 6 8
M  V30 7 1 6 9
M  V30 8 1 6 10
M  V30 9 1 11 12
M  V30 10 1 11 13
M  V30 11 1 11 14
M  V30 12 1 11 15
M  V30 13 1 16 17
M  V30 14 1 16 18
M  V30 15 1 16 19
M  V30 16 1 16 20
M  V30 17 1 21 22
M  V30 18 1 21 23
M  V30 19 1 21 24
M  V30 20 1 21 25
M  V30 21 1 26 27
M  V30 22 1 26 28
M  V30 23 1 26 29
M  V30 24 1 26 30
M  V30 25 1 31 32
M  V30 26 1 31 33
M  V30 27 1 31 34
M  V30 28 1 31 35
M  V30 29 1 36 37
M  V30 30 1 36 38
M  V30 31 1 36 39
M  V30 32 1 36 40
M  V30 33 1 41 42
M  V30 34 1 41 43
M  V30 35 1 41 44
M  V30 36 1 41 45
M  V30 37 1 46 47
M  V30 38 1 47 48
M  V30 39 1 49 50
M  V30 40 1 50 51
M  V30 41 1 52 53
M  V30 42 1 53 54
M  V30 43 1 55 56
M  V30 44 1 56 57
M  V30 45 1 58 59
M  V30 46 1 59 60
M  V30 47 1 61 62
M  V30 48 1 62 63
M  V30 49 1 64 65
M  V30 50 1 65 66
M  V30 51 1 67 68
M  V30 52 1 68 69
M  V30 53 1 70 71
M  V30 54 1 71 72
M  V30 55 1 73 74
M  V30 56 1 74 75
M  V30 57 1 76 77
M  V30 58 1 77 78
M  V30 59 1 79 80
M  V30 60 1 80 81
M  V30 61 1 82 83
M  V30 62 1 83 84
M  V30 63 1 85 86
M  V30 64 1 86 87
M  V30 65 1 88 89
M  V30 66 1 89 90
M  V30 67 1 91 92
M  V30 68 1 92 93
M  V30 69 1 94 95
M  V30 70 1 95 96
M  V30 71 1 97 98
M  V30 72 1 98 99
M  V30 73 1 2 67
M  V30 74 1 3 73
M  V30 75 1 4 91
M  V30 76 1 5 52
M  V30 77 1 7 70
M  V30 78 1 8 82
M  V30 79 1 9 76
M  V30 80 1 10 79
M  V30 81 1 12 64
M  V30 82 1 13 61
M  V30 83 1 14 85
M  V30 84 1 15 49
M  V30 85 1 17 66
M  V30 86 1 18 97
M  V30 87 1 19 88
M  V30 88 1 20 58
M  V30 89 1 22 63
M  V30 90 1 23 55
M  V30 91 1 24 54
M  V30 92 1 25 94
M  V30 93 1 27 46
M  V30 94 1 28 69
M  V30 95 1 29 93
M  V30 96 1 30 60
M  V30 97 1 32 51
M  V30 98 1 33 72
M  V30 99 1 34 99
M  V30 100 1 35 75
M  V30 101 1 37 84
M  V30 102 1 38 48
M  V30 103 1 39 81
M  V30 104 1 40 87
M  V30 105 1 42 78
M  V30 106 1 43 96
M  V30 107 1 44 90
M  V30 108 1 45 57
M  V30 END BOND
M  V30 END CTAB
M  END

$$$$
