
     RDKit          3D

  0  0  0  0  0  0  0  0  0  0999 V3000
M  V30 BEGIN CTAB
M  V30 COUNTS 99 108 0 0 0
M  V30 BEGIN ATOM
M  V30 1 Pd -3.0276 5.8932 -1.8737 0
M  V30 2 Pb -2.0827 5.5882 -1.9792 0
M  V30 3 Pb -3.9543 6.2292 -1.7276 0
M  V30 4 Pb -2.6755 6.8234 -1.6795 0
M  V30 5 Pb -3.3819 4.9623 -1.9756 0
M  V30 6 Pd -2.0917 9.0916 2.5419 0
M  V30 7 Pb -2.2861 8.7391 3.4511 0
M  V30 8 Pb -1.9354 9.2409 1.5568 0
M  V30 9 Pb -3.0644 9.2443 2.3879 0
M  V30 10 Pb -1.1210 8.9006 2.7010 0
M  V30 11 Pd 1.8419 -4.2302 -4.6518 0
M  V30 12 Pb 2.6477 -4.8074 -4.5306 0
M  V30 13 Pb 1.0491 -3.6206 -4.6500 0
M  V30 14 Pb 1.2846 -5.0363 -4.8574 0
M  V30 15 Pb 2.4014 -3.4203 -4.5011 0
M  V30 16 Pd -1.1872 -7.6734 -1.8893 0
M  V30 17 Pb -1.9664 -7.0774 -2.0682 0
M  V30 18 Pb -0.3671 -8.2054 -1.6749 0
M  V30 19 Pb -1.3996 -7.6113 -0.9054 0
M  V30 20 Pb -0.9503 -7.6644 -2.8585 0
M  V30 21 Pd 3.2931 1.5804 -0.0065 0
M  V30 22 Pb 3.7683 0.7778 0.3571 0
M  V30 23 Pb 3.1141 1.9239 0.9166 0
M  V30 24 Pb 3.4926 1.2227 -0.9136 0
M  V30 25 Pb 2.8208 2.3526 -0.4280 0
M  V30 26 Pd -0.1542 4.6487 3.7761 0
M  V30 27 Pb -0.8823 5.2028 4.1856 0
M  V30 28 Pb -0.7723 3.8633 3.7244 0
M  V30 29 Pb 0.4053 5.4760 3.7324 0
M  V30 30 Pb 0.6345 4.0857 3.5167 0
M  V30 31 Pd 3.6413 -6.1356 -0.1147 0
M  V30 32 Pb 4.0651 -5.2506 0.0910 0
M  V30 33 Pb 3.3062 -6.1323 0.8285 0
M  V30 34 Pb 3.9944 -6.1401 -1.0533 0
M  V30 35 Pb 3.2045 -7.0188 -0.3026 0
M  V30 36 Pd -1.7178 0.8377 -0.0462 0
M  V30 37 Pb -0.9431 0.4086 0.4190 0
M  V30 38 Pb -1.5199 0.3806 -0.9183 0
M  V30 39 Pb -2.4794 1.2895 -0.5150 0
M  V30 40 Pb -1.9685 1.2226 0.8461 0
M  V30 41 Pd -0.5771 -3.9672 2.2331 0
M  V30 42 Pb -0.9852 -4.8826 2.1276 0
M  V30 43 Pb -1.3723 -3.5832 1.7701 0
M  V30 44 Pb 0.2258 -4.4006 2.6398 0
M  V30 45 Pb -0.1295 -3.0747 2.2390 0
M  V30 46 Ag -4.5597 6.5780 -1.4788 0
M  V30 47 Fe -4.7162 8.0619 0.3441 0
M  V30 48 Ag -3.7668 9.2431 2.1480 0
M  V30 49 Ag 4.1336 0.1515 0.5547 0
M  V30 50 Fe 4.2577 -2.2202 0.4426 0
M  V30 51 Ag 4.3558 -4.5921 0.3113 0
M  V30 52 Ag 2.7882 -2.7905 -4.4014 0
M  V30 53 Fe 3.2602 -0.9179 -3.0283 0
M  V30 54 Ag 3.6517 0.9086 -1.5704 0
M  V30 55 Ag -1.3552 5.4186 -2.0299 0
M  V30 56 Fe 0.5409 4.1397 -1.3950 0
M  V30 57 Ag 2.4778 2.9010 -0.8052 0
M  V30 58 Ag -2.4724 -6.5336 -2.0528 0
M  V30 59 Fe -2.6444 -4.7250 -0.5482 0
M  V30 60 Ag -1.9448 -3.4570 1.3137 0
M  V30 61 Ag 0.5050 -3.1092 -4.5726 0
M  V30 62 Fe -0.4844 -1.5381 -3.0862 0
M  V30 63 Ag -1.4538 0.0297 -1.5830 0
M  V30 64 Ba 0.8879 -5.6485 -5.0377 0
M  V30 65 Ga 0.0616 -6.6348 -4.3174 0
M  V30 66 Ba -0.7618 -7.6110 -3.5803 0
M  V30 67 Ba -0.3730 0.1271 0.8178 0
M  V30 68 Ga -0.0769 -1.1451 1.5019 0
M  V30 69 Ba 0.2231 -2.4164 2.1862 0
M  V30 70 Ba -0.4066 8.7217 2.8535 0
M  V30 71 Ga 0.2262 7.4499 3.2570 0
M  V30 72 Ba 0.7606 6.1318 3.6538 0
M  V30 73 Ba 3.0839 -6.0853 1.5445 0
M  V30 74 Ga 1.9570 -5.4363 2.2412 0
M  V30 75 Ba 0.8166 -4.7768 2.9054 0
M  V30 76 Ba -1.5680 -7.5529 -0.1681 0
M  V30 77 Ga -1.4100 -6.5483 0.9155 0
M  V30 78 Ba -1.2753 -5.5761 2.0313 0
M  V30 79 Ba -2.4018 7.5205 -1.5314 0
M  V30 80 Ga -2.1342 8.3905 -0.3509 0
M  V30 81 Ba -1.8522 9.2910 0.8032 0
M  V30 82 Ba 3.0225 2.1521 1.6261 0
M  V30 83 Ga 2.0857 2.9323 2.4612 0
M  V30 84 Ba 1.2615 3.6761 3.4360 0
M  V30 85 Ba -3.6795 4.2730 -2.0068 0
M  V30 86 Ga -3.3418 2.9447 -1.4548 0
M  V30 87 Ba -3.0321 1.6040 -0.9167 0
M  V30 88 Ba -2.4232 8.3447 4.0679 0
M  V30 89 Ga -1.9241 6.9899 4.3632 0
M  V30 90 Ba -1.3724 5.6369 4.5575 0
M  V30 91 Ba 3.2558 -5.2132 -4.3680 0
M  V30 92 Ga 3.7713 -5.7063 -3.0755 0
M  V30 93 Ba 4.2493 -6.1783 -1.7606 0
M  V30 94 Ba -1.2798 3.3139 3.6541 0
M  V30 95 Ga -1.6932 2.3834 2.5821 0
M  V30 96 Ba -2.1507 1.4322 1.5469 0
M  V30 97 Ba 0.2601 -8.5722 -1.4852 0
M  V30 98 Ga 1.5755 -8.1332 -0.9738 0
M  V30 99 Ba 2.8869 -7.6828 -0.4625 0
M  V30 END ATOM
M  V30 BEGIN BOND
M  V30 1 1 1 2
M  V30 2 1 1 3
M  V30 3 1 1 4
M  V30 4 1 1 5
M  V30 5 1 6 7
M  V30 6 1 6 8
M  V30 7 1 6 9
M  V30 8 1 6 10
M  V30 9 1 11 12
M  V30 10 1 11 13
M  V30 11 1 11 14
M  V30 12 1 11 15
M  V30 13 1 16 17
M  V30 14 1 16 18
M  V30 15 1 16 19
M  V30 16 1 16 20
M  V30 17 1 21 22
M  V30 18 1 21 23
M  V30 19 1 21 24
M  V30 20 1 21 25
M  V30 21 1 26 27
M  V30 22 1 26 28
M  V30 23 1 26 29
M  V30 24 1 26 30
M  V30 25 1 31 32
M  V30 26 1 31 33
M  V30 27 1 31 34
M  V30 28 1 31 35
M  V30 29 1 36 37
M  V30 30 1 36 38
M  V30 31 1 36 39
M  V30 32 1 36 40
M  V30 33 1 41 42
M  V30 34 1 41 43
M  V30 35 1 41 44
M  V30 36 1 41 45
M  V30 37 1 46 47
M  V30 38 1 47 48
M  V30 39 1 49 50
M  V30 40 1 50 51
M  V30 41 1 52 53
M  V30 42 1 53 54
M  V30 43 1 55 56
M  V30 44 1 56 57
M  V30 45 1 58 59
M  V30 46 1 59 60
M  V30 47 1 61 62
M  V30 48 1 62 63
M  V30 49 1 64 65
M  V30 50 1 65 66
M  V30 51 1 67 68
M  V30 52 1 68 69
M  V30 53 1 70 71
M  V30 54 1 71 72
M  V30 55 1 73 74
M  V30 56 1 74 75
M  V30 57 1 76 77
M  V30 58 1 77 78
M  V30 59 1 79 80
M  V30 60 1 80 81
M  V30 61 1 82 83
M  V30 62 1 83 84
M  V30 63 1 85 86
M  V30 64 1 86 87
M  V30 65 1 88 89
M  V30 66 1 89 90
M  V30 67 1 91 92
M  V30 68 1 92 93
M  V30 69 1 94 95
M  V30 70 1 95 96
M  V30 71 1 97 98
M  V30 72 1 98 99
M  V30 73 1 2 55
M  V30 74 1 3 46
M  V30 75 1 4 79
M  V30 76 1 5 85
M  V30 77 1 7 88
M  V30 78 1 8 81
M  V30 79 1 9 48
M  V30 80 1 10 70
M  V30 81 1 12 91
M  V30 82 1 13 61
M  V30 83 1 14 64
M  V30 84 1 15 52
M  V30 85 1 17 58
M  V30 86 1 18 97
M  V30 87 1 19 76
M  V30 88 1 20 66
M  V30 89 1 22 49
M  V30 90 1 23 82
M  V30 91 1 24 54
M  V30 92 1 25 57
M  V30 93 1 27 90
M  V30 94 1 28 94
M  V30 95 1 29 72
M  V30 96 1 30 84
M  V30 97 1 32 51
M  V30 98 1 33 73
M  V30 99 1 34 93
M  V30 100 1 35 99
M  V30 101 1 37 67
M  V30 102 1 38 63
M  V30 103 1 39 87
M  V30 104 1 40 96
M  V30 105 1 42 78
M  V30 106 1 43 60
M  V30 107 1 44 75
M  V30 108 1 45 69
M  V30 END BOND
M  V30 END CTAB
M  END

$$$$
