
     RDKit          3D

  0  0  0  0  0  0  0  0  0  0999 V3000
M  V30 BEGIN CTAB
M  V30 COUNTS 99 108 0 0 0
M  V30 BEGIN ATOM
M  V30 1 Pd 0.1733 1.7377 4.9996 0
M  V30 2 Pb -0.6121 1.1196 4.9384 0
M  V30 3 Pb 0.6769 1.0407 5.5159 0
M  V30 4 Pb -0.3469 2.4849 4.5791 0
M  V30 5 Pb 0.9815 2.3269 4.9918 0
M  V30 6 Pd 3.0729 -5.1205 -0.0380 0
M  V30 7 Pb 2.1852 -4.6740 -0.1479 0
M  V30 8 Pb 2.7162 -5.6942 0.6991 0
M  V30 9 Pb 3.4892 -4.4247 -0.6184 0
M  V30 10 Pb 3.9777 -5.4746 0.1894 0
M  V30 11 Pd -2.9649 -2.5677 -4.2514 0
M  V30 12 Pb -2.9273 -3.1076 -3.4079 0
M  V30 13 Pb -2.0166 -2.8077 -4.4642 0
M  V30 14 Pb -3.0009 -1.9910 -5.0696 0
M  V30 15 Pb -3.9051 -2.3167 -4.0232 0
M  V30 16 Pd -1.8604 4.4522 -6.4120 0
M  V30 17 Pb -2.1376 3.6086 -6.8713 0
M  V30 18 Pb -2.8122 4.6944 -6.2327 0
M  V30 19 Pb -0.9105 4.1498 -6.4532 0
M  V30 20 Pb -1.6074 5.2238 -5.8285 0
M  V30 21 Pd 1.4107 -0.5398 -2.4468 0
M  V30 22 Pb 1.0389 -1.1819 -1.7749 0
M  V30 23 Pb 1.3385 -1.2731 -3.1214 0
M  V30 24 Pb 1.7175 0.0915 -3.1579 0
M  V30 25 Pb 1.4167 0.2223 -1.7934 0
M  V30 26 Pd -4.4130 5.7379 -0.0582 0
M  V30 27 Pb -4.9022 5.7259 -0.9299 0
M  V30 28 Pb -5.0847 5.1194 0.3446 0
M  V30 29 Pb -3.8749 5.7014 0.7846 0
M  V30 30 Pb -3.7088 6.2725 -0.5255 0
M  V30 31 Pd -5.0708 -1.5727 0.4198 0
M  V30 32 Pb -4.6432 -1.5440 1.3250 0
M  V30 33 Pb -5.5954 -0.7604 0.6708 0
M  V30 34 Pb -5.4915 -1.5760 -0.4874 0
M  V30 35 Pb -4.5156 -2.3585 0.1416 0
M  V30 36 Pd 4.3371 1.7322 1.7312 0
M  V30 37 Pb 3.5290 1.9931 1.2034 0
M  V30 38 Pb 5.1005 1.4136 2.2943 0
M  V30 39 Pb 4.5789 1.1085 0.9872 0
M  V30 40 Pb 4.0671 2.3366 2.4831 0
M  V30 41 Pd 5.3816 -3.9038 5.9973 0
M  V30 42 Pb 4.7136 -4.6427 5.9095 0
M  V30 43 Pb 4.7229 -3.3434 6.4983 0
M  V30 44 Pb 5.9796 -3.1101 5.9032 0
M  V30 45 Pb 5.9651 -4.4230 5.3762 0
M  V30 46 Ag -1.1754 0.6280 4.8620 0
M  V30 47 Fe -2.7654 -0.4378 3.4530 0
M  V30 48 Ag -4.3405 -1.4796 2.0099 0
M  V30 49 Ag -0.2250 3.8590 -6.3876 0
M  V30 50 Fe 0.9708 2.2465 -5.1230 0
M  V30 51 Ag 1.8818 0.5768 -3.7044 0
M  V30 52 Ag -3.4872 4.8714 -5.9631 0
M  V30 53 Fe -4.5202 5.3192 -3.8739 0
M  V30 54 Ag -5.1782 5.7044 -1.6263 0
M  V30 55 Ag 4.6296 -5.6716 0.4966 0
M  V30 56 Fe 5.7038 -5.3784 2.5892 0
M  V30 57 Ag 6.2838 -4.7953 4.8123 0
M  V30 58 Ag 2.5554 -6.0278 1.3510 0
M  V30 59 Fe 3.2266 -5.7946 3.6167 0
M  V30 60 Ag 4.2158 -5.1535 5.6781 0
M  V30 61 Ag -1.4928 5.7467 -5.3034 0
M  V30 62 Fe -2.2290 6.3348 -3.1236 0
M  V30 63 Ag -3.2030 6.5974 -0.9737 0
M  V30 64 Ag -3.0188 -1.5306 -5.6635 0
M  V30 65 Fe -2.7017 0.6754 -6.4875 0
M  V30 66 Ag -2.3370 2.9335 -7.1302 0
M  V30 67 Ag 3.8195 -3.8288 -0.9254 0
M  V30 68 Fe 4.3303 -1.5746 -0.3857 0
M  V30 69 Ag 4.6986 0.6258 0.4253 0
M  V30 70 Ag -0.7169 3.0916 4.3301 0
M  V30 71 Fe -2.0943 4.3302 2.8403 0
M  V30 72 Ag -3.4618 5.6464 1.4090 0
M  V30 73 Ag 5.6199 1.1464 2.7658 0
M  V30 74 Fe 6.1315 -0.6076 4.2825 0
M  V30 75 Ag 6.3524 -2.4895 5.7133 0
M  V30 76 Ag 1.0361 0.5472 5.9571 0
M  V30 77 Fe 2.6177 -1.1745 6.3863 0
M  V30 78 Ag 4.2020 -2.8972 6.8015 0
M  V30 79 Ag -5.5470 4.5929 0.6065 0
M  V30 80 Fe -5.8503 2.2464 0.7872 0
M  V30 81 Ag -5.9452 -0.1238 0.8533 0
M  V30 82 Ba 1.5424 -4.2879 -0.1712 0
M  V30 83 Ga 1.1338 -2.9944 -0.7538 0
M  V30 84 Ba 0.7216 -1.7010 -1.3338 0
M  V30 85 Ba 1.3876 0.8322 -1.3511 0
M  V30 86 Ga 2.1648 1.4725 -0.2696 0
M  V30 87 Ba 2.9075 2.1496 0.8139 0
M  V30 88 Ba -4.6026 -2.1310 -3.8211 0
M  V30 89 Ga -5.2197 -1.8510 -2.5115 0
M  V30 90 Ba -5.7859 -1.5803 -1.1771 0
M  V30 91 Ba -2.9156 -3.4880 -2.7591 0
M  V30 92 Ga -3.4969 -3.2319 -1.4247 0
M  V30 93 Ba -4.0983 -2.9314 -0.1086 0
M  V30 94 Ba 1.5894 2.7637 4.9404 0
M  V30 95 Ga 2.7362 2.7809 4.0105 0
M  V30 96 Ba 3.8695 2.7710 3.0640 0
M  V30 97 Ba -1.2993 -2.9700 -4.6163 0
M  V30 98 Ga -0.0165 -2.4200 -4.1388 0
M  V30 99 Ba 1.2276 -1.8228 -3.6180 0
M  V30 END ATOM
M  V30 BEGIN BOND
M  V30 1 1 1 2
M  V30 2 1 1 3
M  V30 3 1 1 4
M  V30 4 1 1 5
M  V30 5 1 6 7
M  V30 6 1 6 8
M  V30 7 1 6 9
M  V30 8 1 6 10
M  V30 9 1 11 12
M  V30 10 1 11 13
M  V30 11 1 11 14
M  V30 12 1 11 15
M  V30 13 1 16 17
M  V30 14 1 16 18
M  V30 15 1 16 19
M  V30 16 1 16 20
M  V30 17 1 21 22
M  V30 18 1 21 23
M  V30 19 1 21 24
M  V30 20 1 21 25
M  V30 21 1 26 27
M  V30 22 1 26 28
M  V30 23 1 26 29
M  V30 24 1 26 30
M  V30 25 1 31 32
M  V30 26 1 31 33
M  V30 27 1 31 34
M  V30 28 1 31 35
M  V30 29 1 36 37
M  V30 30 1 36 38
M  V30 31 1 36 39
M  V30 32 1 36 40
M  V30 33 1 41 42
M  V30 34 1 41 43
M  V30 35 1 41 44
M  V30 36 1 41 45
M  V30 37 1 46 47
M  V30 38 1 47 48
M  V30 39 1 49 50
M  V30 40 1 50 51
M  V30 41 1 52 53
M  V30 42 1 53 54
M  V30 43 1 55 56
M  V30 44 1 56 57
M  V30 45 1 58 59
M  V30 46 1 59 60
M  V30 47 1 61 62
M  V30 48 1 62 63
M  V30 49 1 64 65
M  V30 50 1 65 66
M  V30 51 1 67 68
M  V30 52 1 68 69
M  V30 53 1 70 71
M  V30 54 1 71 72
M  V30 55 1 73 74
M  V30 56 1 74 75
M  V30 57 1 76 77
M  V30 58 1 77 78
M  V30 59 1 79 80
M  V30 60 1 80 81
M  V30 61 1 82 83
M  V30 62 1 83 84
M  V30 63 1 85 86
M  V30 64 1 86 87
M  V30 65 1 88 89
M  V30 66 1 89 90
M  V30 67 1 91 92
M  V30 68 1 92 93
M  V30 69 1 94 95
M  V30 70 1 95 96
M  V30 71 1 97 98
M  V30 72 1 98 99
M  V30 73 1 2 46
M  V30 74 1 3 76
M  V30 75 1 4 70
M  V30 76 1 5 94
M  V30 77 1 7 82
M  V30 78 1 8 58
M  V30 79 1 9 67
M  V30 80 1 10 55
M  V30 81 1 12 91
M  V30 82 1 13 97
M  V30 83 1 14 64
M  V30 84 1 15 88
M  V30 85 1 17 66
M  V30 86 1 18 52
M  V30 87 1 19 49
M  V30 88 1 20 61
M  V30 89 1 22 84
M  V30 90 1 23 99
M  V30 91 1 24 51
M  V30 92 1 25 85
M  V30 93 1 27 54
M  V30 94 1 28 79
M  V30 95 1 29 72
M  V30 96 1 30 63
M  V30 97 1 32 48
M  V30 98 1 33 81
M  V30 99 1 34 90
M  V30 100 1 35 93
M  V30 101 1 37 87
M  V30 102 1 38 73
M  V30 103 1 39 69
M  V30 104 1 40 96
M  V30 105 1 42 60
M  V30 106 1 43 78
M  V30 107 1 44 75
M  V30 108 1 45 57
M  V30 END BOND
M  V30 END CTAB
M  END

$$$$
