
     RDKit          3D

  0  0  0  0  0  0  0  0  0  0999 V3000
M  V30 BEGIN CTAB
M  V30 COUNTS 99 108 0 0 0
M  V30 BEGIN ATOM
M  V30 1 Pd -3.6293 -1.5137 5.4448 0
M  V30 2 Pb -3.3662 -0.8648 6.1716 0
M  V30 3 Pb -3.6539 -2.2312 6.1369 0
M  V30 4 Pb -3.9122 -2.1815 4.7537 0
M  V30 5 Pb -3.4904 -0.7889 4.7620 0
M  V30 6 Pd -1.8679 -2.6606 0.8247 0
M  V30 7 Pb -1.1629 -3.3056 1.1193 0
M  V30 8 Pb -1.1384 -2.0467 0.5344 0
M  V30 9 Pb -2.5547 -2.0145 0.4929 0
M  V30 10 Pb -2.5946 -3.2034 1.2336 0
M  V30 11 Pd -1.3199 4.2808 -6.4751 0
M  V30 12 Pb -0.5179 4.4924 -7.0284 0
M  V30 13 Pb -2.1469 4.1098 -5.9396 0
M  V30 14 Pb -0.8858 4.6323 -5.6455 0
M  V30 15 Pb -1.6948 3.7792 -7.2697 0
M  V30 16 Pd 0.0291 -0.3848 -9.1986 0
M  V30 17 Pb -0.5047 -0.8871 -8.5225 0
M  V30 18 Pb 0.7841 -1.0087 -8.9917 0
M  V30 19 Pb -0.6955 0.3183 -9.2722 0
M  V30 20 Pb 0.6258 0.1966 -9.7450 0
M  V30 21 Pd 0.7742 0.0253 8.4831 0
M  V30 22 Pb 0.9493 0.8822 8.0001 0
M  V30 23 Pb 1.7066 -0.2813 8.3119 0
M  V30 24 Pb 0.5415 -0.8386 8.9236 0
M  V30 25 Pb -0.1993 0.2716 8.5021 0
M  V30 26 Pd 0.7078 1.5274 3.2078 0
M  V30 27 Pb 0.7526 1.9491 4.1152 0
M  V30 28 Pb 0.6994 1.1383 2.2873 0
M  V30 29 Pb 1.6968 1.6911 3.1111 0
M  V30 30 Pb -0.2923 1.3935 3.2647 0
M  V30 31 Pd -1.8721 2.1971 -1.7967 0
M  V30 32 Pb -2.5309 1.5218 -1.4630 0
M  V30 33 Pb -2.5914 2.6238 -2.3410 0
M  V30 34 Pb -1.1386 1.7097 -1.3208 0
M  V30 35 Pb -1.2434 2.9115 -2.1159 0
M  V30 36 Pd 4.7641 -1.5075 2.3022 0
M  V30 37 Pb 4.4262 -2.4436 2.2450 0
M  V30 38 Pb 4.9374 -1.4938 1.3136 0
M  V30 39 Pb 4.8843 -0.5190 2.3678 0
M  V30 40 Pb 4.6856 -1.5300 3.2989 0
M  V30 41 Pd 2.4053 -2.0582 -2.8228 0
M  V30 42 Pb 3.3144 -1.9314 -2.4245 0
M  V30 43 Pb 2.0066 -1.6436 -2.0099 0
M  V30 44 Pb 1.5011 -2.1697 -3.2334 0
M  V30 45 Pb 2.7754 -2.3788 -3.6959 0
M  V30 46 Ag 2.3676 -0.5363 8.0763 0
M  V30 47 Fe 3.5797 -1.0495 6.1016 0
M  V30 48 Ag 4.6735 -1.5216 4.0489 0
M  V30 49 Ag -0.7959 -1.2272 -7.9244 0
M  V30 50 Fe -0.1432 -1.8181 -5.7217 0
M  V30 51 Ag 0.8609 -2.2452 -3.6150 0
M  V30 52 Ag -3.4927 -2.6816 6.7054 0
M  V30 53 Fe -1.7064 -2.5099 8.2371 0
M  V30 54 Ag 0.2109 -1.4696 9.1363 0
M  V30 55 Ag -0.5731 -3.7308 1.3021 0
M  V30 56 Fe 1.7486 -3.6182 1.7786 0
M  V30 57 Ag 4.0166 -3.0668 2.2036 0
M  V30 58 Ag 1.3307 -1.4430 -8.7142 0
M  V30 59 Fe 2.2748 -2.1092 -6.6373 0
M  V30 60 Ag 2.9550 -2.5541 -4.4039 0
M  V30 61 Ag 0.0345 4.5306 -7.5250 0
M  V30 62 Fe 0.9109 2.9388 -9.0284 0
M  V30 63 Ag 1.0234 0.7804 -9.9692 0
M  V30 64 Ba 1.0227 1.5258 7.6235 0
M  V30 65 Ga 0.9338 1.8994 6.1984 0
M  V30 66 Ba 0.8464 2.2913 4.7781 0
M  V30 67 Ba -1.9511 3.3717 -7.8609 0
M  V30 68 Ga -1.5685 2.1149 -8.5677 0
M  V30 69 Ba -1.2265 0.8650 -9.3069 0
M  V30 70 Ba -2.7570 4.0122 -5.5146 0
M  V30 71 Ga -2.9673 3.4734 -4.1595 0
M  V30 72 Ba -3.1015 2.9197 -2.8009 0
M  V30 73 Ba 0.7264 0.8582 1.5928 0
M  V30 74 Ga 0.0419 1.1019 0.3086 0
M  V30 75 Ba -0.5988 1.2922 -1.0066 0
M  V30 76 Ba -0.5579 4.8054 -4.9928 0
M  V30 77 Ga -0.6649 4.1659 -3.6638 0
M  V30 78 Ba -0.8158 3.4818 -2.3616 0
M  V30 79 Ba -3.3583 -0.2248 4.2766 0
M  V30 80 Ga -2.1715 0.5212 3.7846 0
M  V30 81 Ba -1.0489 1.3244 3.2360 0
M  V30 82 Ba -4.1265 -2.7116 4.2651 0
M  V30 83 Ga -3.6702 -3.1554 2.9365 0
M  V30 84 Ba -3.1492 -3.5287 1.6103 0
M  V30 85 Ba -0.5813 -1.5697 0.3922 0
M  V30 86 Ga 0.5548 -1.4547 -0.5342 0
M  V30 87 Ba 1.7079 -1.2812 -1.4301 0
M  V30 88 Ba -3.2080 -0.3881 6.7409 0
M  V30 89 Ga -2.0558 0.0127 7.5870 0
M  V30 90 Ba -0.9326 0.4451 8.4563 0
M  V30 91 Ba 2.4344 1.8376 3.0222 0
M  V30 92 Ga 3.6601 1.0577 2.7381 0
M  V30 93 Ba 4.8498 0.2243 2.4546 0
M  V30 94 Ba 5.1345 -1.4942 0.5860 0
M  V30 95 Ga 4.5280 -1.6600 -0.7515 0
M  V30 96 Ba 3.9906 -1.8158 -2.1196 0
M  V30 97 Ba -3.0709 -1.5390 0.2296 0
M  V30 98 Ga -3.0436 -0.2503 -0.4879 0
M  V30 99 Ba -3.0446 1.0384 -1.2060 0
M  V30 END ATOM
M  V30 BEGIN BOND
M  V30 1 1 1 2
M  V30 2 1 1 3
M  V30 3 1 1 4
M  V30 4 1 1 5
M  V30 5 1 6 7
M  V30 6 1 6 8
M  V30 7 1 6 9
M  V30 8 1 6 10
M  V30 9 1 11 12
M  V30 10 1 11 13
M  V30 11 1 11 14
M  V30 12 1 11 15
M  V30 13 1 16 17
M  V30 14 1 16 18
M  V30 15 1 16 19
M  V30 16 1 16 20
M  V30 17 1 21 22
M  V30 18 1 21 23
M  V30 19 1 21 24
M  V30 20 1 21 25
M  V30 21 1 26 27
M  V30 22 1 26 28
M  V30 23 1 26 29
M  V30 24 1 26 30
M  V30 25 1 31 32
M  V30 26 1 31 33
M  V30 27 1 31 34
M  V30 28 1 31 35
M  V30 29 1 36 37
M  V30 30 1 36 38
M  V30 31 1 36 39
M  V30 32 1 36 40
M  V30 33 1 41 42
M  V30 34 1 41 43
M  V30 35 1 41 44
M  V30 36 1 41 45
M  V30 37 1 46 47
M  V30 38 1 47 48
M  V30 39 1 49 50
M  V30 40 1 50 51
M  V30 41 1 52 53
M  V30 42 1 53 54
M  V30 43 1 55 56
M  V30 44 1 56 57
M  V30 45 1 58 59
M  V30 46 1 59 60
M  V30 47 1 61 62
M  V30 48 1 62 63
M  V30 49 1 64 65
M  V30 50 1 65 66
M  V30 51 1 67 68
M  V30 52 1 68 69
M  V30 53 1 70 71
M  V30 54 1 71 72
M  V30 55 1 73 74
M  V30 56 1 74 75
M  V30 57 1 76 77
M  V30 58 1 77 78
M  V30 59 1 79 80
M  V30 60 1 80 81
M  V30 61 1 82 83
M  V30 62 1 83 84
M  V30 63 1 85 86
M  V30 64 1 86 87
M  V30 65 1 88 89
M  V30 66 1 89 90
M  V30 67 1 91 92
M  V30 68 1 92 93
M  V30 69 1 94 95
M  V30 70 1 95 96
M  V30 71 1 97 98
M  V30 72 1 98 99
M  V30 73 1 2 88
M  V30 74 1 3 52
M  V30 75 1 4 82
M  V30 76 1 5 79
M  V30 77 1 7 55
M  V30 78 1 8 85
M  V30 79 1 9 97
M  V30 80 1 10 84
M  V30 81 1 12 61
M  V30 82 1 13 70
M  V30 83 1 14 76
M  V30 84 1 15 67
M  V30 85 1 17 49
M  V30 86 1 18 58
M  V30 87 1 19 69
M  V30 88 1 20 63
M  V30 89 1 22 64
M  V30 90 1 23 46
M  V30 91 1 24 54
M  V30 92 1 25 90
M  V30 93 1 27 66
M  V30 94 1 28 73
M  V30 95 1 29 91
M  V30 96 1 30 81
M  V30 97 1 32 99
M  V30 98 1 33 72
M  V30 99 1 34 75
M  V30 100 1 35 78
M  V30 101 1 37 57
M  V30 102 1 38 94
M  V30 103 1 39 93
M  V30 104 1 40 48
M  V30 105 1 42 96
M  V30 106 1 43 87
M  V30 107 1 44 51
M  V30 108 1 45 60
M  V30 END BOND
M  V30 END CTAB
M  END

$$$$
