
     RDKit          3D

  0  0  0  0  0  0  0  0  0  0999 V3000
M  V30 BEGIN CTAB
M  V30 COUNTS 99 108 0 0 0
M  V30 BEGIN ATOM
M  V30 1 Pd -1.5597 4.4849 -1.6958 0
M  V30 2 Pb -1.9070 4.0730 -2.5348 0
M  V30 3 Pb -1.2014 4.9220 -0.8703 0
M  V30 4 Pb -2.3742 4.1736 -1.2002 0
M  V30 5 Pb -0.7218 4.7311 -2.1794 0
M  V30 6 Pd 6.0099 2.3782 5.5282 0
M  V30 7 Pb 5.4408 1.5687 5.3850 0
M  V30 8 Pb 5.2549 2.8505 5.9802 0
M  V30 9 Pb 6.7181 2.0121 4.9335 0
M  V30 10 Pb 6.5412 3.2199 5.5806 0
M  V30 11 Pd -1.3895 -5.4667 -2.5453 0
M  V30 12 Pb -2.3617 -5.4247 -2.7920 0
M  V30 13 Pb -0.4129 -5.4901 -2.3196 0
M  V30 14 Pb -1.5822 -6.1949 -1.8833 0
M  V30 15 Pb -1.1972 -4.7741 -3.2376 0
M  V30 16 Pd -4.4631 -5.6886 1.6027 0
M  V30 17 Pb -3.9448 -6.4656 1.2519 0
M  V30 18 Pb -5.2824 -6.0189 1.1492 0
M  V30 19 Pb -3.6284 -5.3918 2.0599 0
M  V30 20 Pb -4.9507 -4.8310 1.8557 0
M  V30 21 Pd 2.6707 -2.9813 0.7218 0
M  V30 22 Pb 2.9021 -2.4129 1.5142 0
M  V30 23 Pb 2.4775 -3.6304 -0.0195 0
M  V30 24 Pb 2.0006 -3.4252 1.3124 0
M  V30 25 Pb 3.2930 -2.4818 0.1155 0
M  V30 26 Pd -7.1235 -0.9301 -0.5662 0
M  V30 27 Pb -7.6561 -1.7361 -0.7952 0
M  V30 28 Pb -7.3527 -0.5745 -1.4695 0
M  V30 29 Pb -6.6242 -0.0900 -0.3359 0
M  V30 30 Pb -6.8360 -1.3817 0.2996 0
M  V30 31 Pd -4.3898 -1.7303 -4.8878 0
M  V30 32 Pb -4.1207 -0.8061 -5.1425 0
M  V30 33 Pb -5.3151 -1.3794 -4.7354 0
M  V30 34 Pb -3.4494 -2.0353 -5.0245 0
M  V30 35 Pb -4.6307 -2.6505 -4.5724 0
M  V30 36 Pd 5.9246 3.6809 -1.2978 0
M  V30 37 Pb 5.7766 2.7366 -1.5943 0
M  V30 38 Pb 6.0266 4.6131 -0.9410 0
M  V30 39 Pb 6.6239 3.3231 -0.6828 0
M  V30 40 Pb 5.1959 4.0184 -1.8913 0
M  V30 41 Pd 4.3299 6.2602 3.2480 0
M  V30 42 Pb 3.9450 5.9313 4.1142 0
M  V30 43 Pb 3.4069 6.3003 2.8613 0
M  V30 44 Pb 4.7493 6.5363 2.3789 0
M  V30 45 Pb 5.2332 6.2363 3.6740 0
M  V30 46 Ag 4.9924 0.9850 5.2410 0
M  V30 47 Fe 4.0516 -0.5204 3.6605 0
M  V30 48 Ag 3.0465 -2.0768 2.1720 0
M  V30 49 Ag -2.1558 3.7634 -3.1676 0
M  V30 50 Fe -3.0368 1.8668 -4.2839 0
M  V30 51 Ag -3.9132 -0.1018 -5.2719 0
M  V30 52 Ag 3.7203 -2.0980 -0.3704 0
M  V30 53 Fe 4.7089 -0.0574 -1.0835 0
M  V30 54 Ag 5.6762 2.0089 -1.7504 0
M  V30 55 Ag -2.9723 -5.2264 2.3768 0
M  V30 56 Fe -0.7428 -4.4641 2.1040 0
M  V30 57 Ag 1.4763 -3.6950 1.7720 0
M  V30 58 Ag -5.9138 -6.1250 0.7806 0
M  V30 59 Fe -7.3330 -4.5672 -0.2634 0
M  V30 60 Ag -7.9696 -2.3963 -0.9071 0
M  V30 61 Ag 7.1956 1.8652 4.3819 0
M  V30 62 Fe 7.3368 2.3337 2.0639 0
M  V30 63 Ag 7.0898 2.9972 -0.1975 0
M  V30 64 Ag -2.9708 3.9104 -0.8235 0
M  V30 65 Fe -4.6194 2.2246 -0.5076 0
M  V30 66 Ag -6.2822 0.5588 -0.1609 0
M  V30 67 Ag -0.0733 4.8692 -2.5263 0
M  V30 68 Fe 2.2854 4.6136 -2.4761 0
M  V30 69 Ag 4.6295 4.2891 -2.2991 0
M  V30 70 Ag -0.9219 5.2709 -0.2675 0
M  V30 71 Fe 0.9098 5.7812 1.1576 0
M  V30 72 Ag 2.6943 6.3364 2.6251 0
M  V30 73 Ba -1.0631 -4.2700 -3.7739 0
M  V30 74 Ga -1.8888 -3.2556 -4.4495 0
M  V30 75 Ba -2.7373 -2.2490 -5.1084 0
M  V30 76 Ba 6.8953 3.8757 5.5388 0
M  V30 77 Ga 6.4599 5.0773 4.8103 0
M  V30 78 Ba 5.8861 6.1904 4.0382 0
M  V30 79 Ba 4.6903 3.2808 6.2199 0
M  V30 80 Ga 4.1403 4.4756 5.5478 0
M  V30 81 Ba 3.6951 5.6474 4.7658 0
M  V30 82 Ba -3.0875 -5.3849 -2.9919 0
M  V30 83 Ga -3.9377 -4.3698 -3.6520 0
M  V30 84 Ba -4.7723 -3.3424 -4.3131 0
M  V30 85 Ba -5.3033 -4.1770 2.0511 0
M  V30 86 Ga -5.9571 -2.9766 1.4394 0
M  V30 87 Ba -6.6327 -1.7322 0.9520 0
M  V30 88 Ba -1.7384 -6.7542 -1.4042 0
M  V30 89 Ga -2.6163 -6.9053 -0.2276 0
M  V30 90 Ba -3.5119 -6.9911 0.9421 0
M  V30 91 Ba 6.0584 5.3191 -0.6796 0
M  V30 92 Ga 5.5778 6.0171 0.5339 0
M  V30 93 Ba 5.1029 6.7290 1.7416 0
M  V30 94 Ba -7.5037 -0.3966 -2.1800 0
M  V30 95 Ga -6.7654 -0.7068 -3.4184 0
M  V30 96 Ba -5.9802 -1.0495 -4.6188 0
M  V30 97 Ba 0.3287 -5.5023 -2.1925 0
M  V30 98 Ga 1.3193 -4.7980 -1.3493 0
M  V30 99 Ba 2.3875 -4.1555 -0.5531 0
M  V30 END ATOM
M  V30 BEGIN BOND
M  V30 1 1 1 2
M  V30 2 1 1 3
M  V30 3 1 1 4
M  V30 4 1 1 5
M  V30 5 1 6 7
M  V30 6 1 6 8
M  V30 7 1 6 9
M  V30 8 1 6 10
M  V30 9 1 11 12
M  V30 10 1 11 13
M  V30 11 1 11 14
M  V30 12 1 11 15
M  V30 13 1 16 17
M  V30 14 1 16 18
M  V30 15 1 16 19
M  V30 16 1 16 20
M  V30 17 1 21 22
M  V30 18 1 21 23
M  V30 19 1 21 24
M  V30 20 1 21 25
M  V30 21 1 26 27
M  V30 22 1 26 28
M  V30 23 1 26 29
M  V30 24 1 26 30
M  V30 25 1 31 32
M  V30 26 1 31 33
M  V30 27 1 31 34
M  V30 28 1 31 35
M  V30 29 1 36 37
M  V30 30 1 36 38
M  V30 31 1 36 39
M  V30 32 1 36 40
M  V30 33 1 41 42
M  V30 34 1 41 43
M  V30 35 1 41 44
M  V30 36 1 41 45
M  V30 37 1 46 47
M  V30 38 1 47 48
M  V30 39 1 49 50
M  V30 40 1 50 51
M  V30 41 1 52 53
M  V30 42 1 53 54
M  V30 43 1 55 56
M  V30 44 1 56 57
M  V30 45 1 58 59
M  V30 46 1 59 60
M  V30 47 1 61 62
M  V30 48 1 62 63
M  V30 49 1 64 65
M  V30 50 1 65 66
M  V30 51 1 67 68
M  V30 52 1 68 69
M  V30 53 1 70 71
M  V30 54 1 71 72
M  V30 55 1 73 74
M  V30 56 1 74 75
M  V30 57 1 76 77
M  V30 58 1 77 78
M  V30 59 1 79 80
M  V30 60 1 80 81
M  V30 61 1 82 83
M  V30 62 1 83 84
M  V30 63 1 85 86
M  V30 64 1 86 87
M  V30 65 1 88 89
M  V30 66 1 89 90
M  V30 67 1 91 92
M  V30 68 1 92 93
M  V30 69 1 94 95
M  V30 70 1 95 96
M  V30 71 1 97 98
M  V30 72 1 98 99
M  V30 73 1 2 49
M  V30 74 1 3 70
M  V30 75 1 4 64
M  V30 76 1 5 67
M  V30 77 1 7 46
M  V30 78 1 8 79
M  V30 79 1 9 61
M  V30 80 1 10 76
M  V30 81 1 12 82
M  V30 82 1 13 97
M  V30 83 1 14 88
M  V30 84 1 15 73
M  V30 85 1 17 90
M  V30 86 1 18 58
M  V30 87 1 19 55
M  V30 88 1 20 85
M  V30 89 1 22 48
M  V30 90 1 23 99
M  V30 91 1 24 57
M  V30 92 1 25 52
M  V30 93 1 27 60
M  V30 94 1 28 94
M  V30 95 1 29 66
M  V30 96 1 30 87
M  V30 97 1 32 51
M  V30 98 1 33 96
M  V30 99 1 34 75
M  V30 100 1 35 84
M  V30 101 1 37 54
M  V30 102 1 38 91
M  V30 103 1 39 63
M  V30 104 1 40 69
M  V30 105 1 42 81
M  V30 106 1 43 72
M  V30 107 1 44 93
M  V30 108 1 45 78
M  V30 END BOND
M  V30 END CTAB
M  END

$$$$
