
     RDKit          3D

  0  0  0  0  0  0  0  0  0  0999 V3000
M  V30 BEGIN CTAB
M  V30 COUNTS 99 108 0 0 0
M  V30 BEGIN ATOM
M  V30 1 Pd 0.5364 -0.0238 -2.0924 0
M  V30 2 Pb 0.4282 -1.0062 -2.0116 0
M  V30 3 Pb -0.4056 0.0554 -2.4177 0
M  V30 4 Pb 0.5469 0.9446 -1.8898 0
M  V30 5 Pb 1.4820 -0.0994 -1.7767 0
M  V30 6 Pd -0.3233 -5.3228 9.5441 0
M  V30 7 Pb -1.1229 -5.5297 10.1060 0
M  V30 8 Pb -0.8827 -5.3570 8.7187 0
M  V30 9 Pb 0.1481 -5.0152 10.3864 0
M  V30 10 Pb 0.4495 -4.9675 9.0202 0
M  V30 11 Pd -0.5018 -0.5206 11.7786 0
M  V30 12 Pb 0.2778 -0.3034 11.1928 0
M  V30 13 Pb -1.2979 -0.8640 12.2747 0
M  V30 14 Pb 0.0098 -1.3326 12.1025 0
M  V30 15 Pb -1.0817 0.0965 11.2511 0
M  V30 16 Pd 3.1949 1.0133 -6.8736 0
M  V30 17 Pb 4.0047 1.5836 -6.7261 0
M  V30 18 Pb 2.6525 1.5865 -6.2593 0
M  V30 19 Pb 2.5454 0.2572 -6.7776 0
M  V30 20 Pb 3.7342 0.4439 -7.4882 0
M  V30 21 Pd -0.7859 4.6378 -7.5611 0
M  V30 22 Pb -0.6066 3.8090 -8.0935 0
M  V30 23 Pb -0.2885 4.2670 -6.7763 0
M  V30 24 Pb -1.2537 5.3013 -6.9753 0
M  V30 25 Pb -1.2897 5.0030 -8.3402 0
M  V30 26 Pd 5.2437 -1.3343 -4.4487 0
M  V30 27 Pb 5.5309 -1.6145 -5.3608 0
M  V30 28 Pb 4.9588 -1.0573 -3.5308 0
M  V30 29 Pb 5.8752 -0.5597 -4.5115 0
M  V30 30 Pb 4.4162 -1.8865 -4.5634 0
M  V30 31 Pd -4.3125 2.9215 -7.3089 0
M  V30 32 Pb -4.4793 3.7312 -6.7443 0
M  V30 33 Pb -4.4008 3.4938 -8.1201 0
M  V30 34 Pb -3.8335 2.2411 -7.8658 0
M  V30 35 Pb -4.2007 2.3545 -6.4933 0
M  V30 36 Pd -1.6288 1.0186 4.4231 0
M  V30 37 Pb -1.9577 0.9063 5.3628 0
M  V30 38 Pb -1.2976 1.3808 3.5559 0
M  V30 39 Pb -0.6913 0.7668 4.6702 0
M  V30 40 Pb -2.5475 0.9499 4.0298 0
M  V30 41 Pd -1.2897 -2.4114 2.4632 0
M  V30 42 Pb -0.9463 -2.4354 1.5160 0
M  V30 43 Pb -0.3729 -2.3511 2.8615 0
M  V30 44 Pb -1.6478 -2.6950 3.3519 0
M  V30 45 Pb -2.2195 -2.1539 2.1943 0
M  V30 46 Ag -1.3372 -5.2244 8.1382 0
M  V30 47 Fe -1.6356 -4.1551 6.0382 0
M  V30 48 Ag -1.9167 -3.0725 3.9427 0
M  V30 49 Ag -1.6839 -5.4633 10.5913 0
M  V30 50 Fe -2.2220 -3.5462 11.8608 0
M  V30 51 Ag -1.8402 -1.3113 12.5207 0
M  V30 52 Ag -1.5343 0.4263 10.7537 0
M  V30 53 Fe -1.8906 0.7322 8.4237 0
M  V30 54 Ag -2.1824 0.9819 6.0779 0
M  V30 55 Ag 0.4676 1.5716 -1.5084 0
M  V30 56 Fe -0.2768 1.8657 0.7185 0
M  V30 57 Ag -1.0575 1.7497 2.9510 0
M  V30 58 Ag 0.9765 -4.5124 8.7561 0
M  V30 59 Fe 1.3477 -2.2719 9.4034 0
M  V30 60 Ag 0.8240 -0.3623 10.6900 0
M  V30 61 Ag -1.1084 0.1212 -2.6703 0
M  V30 62 Fe -2.6228 1.0162 -4.2654 0
M  V30 63 Ag -4.1015 1.9323 -5.8818 0
M  V30 64 Ba 4.6704 1.8504 -6.4953 0
M  V30 65 Ga 5.5512 1.0824 -5.5829 0
M  V30 66 Ba 6.2000 0.0978 -4.6841 0
M  V30 67 Ba 0.2983 -1.7071 -1.7999 0
M  V30 68 Ga -0.2075 -2.1555 -0.4840 0
M  V30 69 Ba -0.7114 -2.6346 0.8215 0
M  V30 70 Ba 0.4636 -4.7009 11.0083 0
M  V30 71 Ga 0.4150 -3.3468 11.6430 0
M  V30 72 Ba 0.3617 -1.9903 12.2722 0
M  V30 73 Ba -0.0276 0.4133 4.7279 0
M  V30 74 Ga 0.2490 -0.8715 4.0386 0
M  V30 75 Ba 0.2347 -2.1270 3.2476 0
M  V30 76 Ba -1.7516 5.2126 -8.8859 0
M  V30 77 Ga -3.1115 4.6828 -8.9623 0
M  V30 78 Ba -4.3511 3.9535 -8.7036 0
M  V30 79 Ba 2.1932 -0.1525 -1.5455 0
M  V30 80 Ga 3.4713 -0.5036 -2.1924 0
M  V30 81 Ba 4.7494 -0.8548 -2.8395 0
M  V30 82 Ba -3.1531 0.7257 3.6398 0
M  V30 83 Ga -3.1617 -0.5210 2.8342 0
M  V30 84 Ba -2.8814 -1.7982 2.1315 0
M  V30 85 Ba 2.2441 2.0189 -5.8024 0
M  V30 86 Ga 1.1631 3.0044 -5.9944 0
M  V30 87 Ba 0.0821 3.9899 -6.1854 0
M  V30 88 Ba -1.7633 5.6668 -6.5584 0
M  V30 89 Ga -3.1371 5.1443 -6.3692 0
M  V30 90 Ba -4.4066 4.3800 -6.3690 0
M  V30 91 Ba -0.6714 3.1476 -8.4474 0
M  V30 92 Ga -1.9398 2.3815 -8.4439 0
M  V30 93 Ba -3.3161 1.8633 -8.2616 0
M  V30 94 Ba 2.2084 -0.3876 -6.5822 0
M  V30 95 Ga 2.8544 -1.3695 -5.6783 0
M  V30 96 Ba 3.7382 -2.1407 -4.7715 0
M  V30 97 Ba 4.1767 -0.0287 -7.8552 0
M  V30 98 Ga 5.0146 -0.9782 -7.1284 0
M  V30 99 Ba 5.6769 -1.7471 -6.0785 0
M  V30 END ATOM
M  V30 BEGIN BOND
M  V30 1 1 1 2
M  V30 2 1 1 3
M  V30 3 1 1 4
M  V30 4 1 1 5
M  V30 5 1 6 7
M  V30 6 1 6 8
M  V30 7 1 6 9
M  V30 8 1 6 10
M  V30 9 1 11 12
M  V30 10 1 11 13
M  V30 11 1 11 14
M  V30 12 1 11 15
M  V30 13 1 16 17
M  V30 14 1 16 18
M  V30 15 1 16 19
M  V30 16 1 16 20
M  V30 17 1 21 22
M  V30 18 1 21 23
M  V30 19 1 21 24
M  V30 20 1 21 25
M  V30 21 1 26 27
M  V30 22 1 26 28
M  V30 23 1 26 29
M  V30 24 1 26 30
M  V30 25 1 31 32
M  V30 26 1 31 33
M  V30 27 1 31 34
M  V30 28 1 31 35
M  V30 29 1 36 37
M  V30 30 1 36 38
M  V30 31 1 36 39
M  V30 32 1 36 40
M  V30 33 1 41 42
M  V30 34 1 41 43
M  V30 35 1 41 44
M  V30 36 1 41 45
M  V30 37 1 46 47
M  V30 38 1 47 48
M  V30 39 1 49 50
M  V30 40 1 50 51
M  V30 41 1 52 53
M  V30 42 1 53 54
M  V30 43 1 55 56
M  V30 44 1 56 57
M  V30 45 1 58 59
M  V30 46 1 59 60
M  V30 47 1 61 62
M  V30 48 1 62 63
M  V30 49 1 64 65
M  V30 50 1 65 66
M  V30 51 1 67 68
M  V30 52 1 68 69
M  V30 53 1 70 71
M  V30 54 1 71 72
M  V30 55 1 73 74
M  V30 56 1 74 75
M  V30 57 1 76 77
M  V30 58 1 77 78
M  V30 59 1 79 80
M  V30 60 1 80 81
M  V30 61 1 82 83
M  V30 62 1 83 84
M  V30 63 1 85 86
M  V30 64 1 86 87
M  V30 65 1 88 89
M  V30 66 1 89 90
M  V30 67 1 91 92
M  V30 68 1 92 93
M  V30 69 1 94 95
M  V30 70 1 95 96
M  V30 71 1 97 98
M  V30 72 1 98 99
M  V30 73 1 2 67
M  V30 74 1 3 61
M  V30 75 1 4 55
M  V30 76 1 5 79
M  V30 77 1 7 49
M  V30 78 1 8 46
M  V30 79 1 9 70
M  V30 80 1 10 58
M  V30 81 1 12 60
M  V30 82 1 13 51
M  V30 83 1 14 72
M  V30 84 1 15 52
M  V30 85 1 17 64
M  V30 86 1 18 85
M  V30 87 1 19 94
M  V30 88 1 20 97
M  V30 89 1 22 91
M  V30 90 1 23 87
M  V30 91 1 24 88
M  V30 92 1 25 76
M  V30 93 1 27 99
M  V30 94 1 28 81
M  V30 95 1 29 66
M  V30 96 1 30 96
M  V30 97 1 32 90
M  V30 98 1 33 78
M  V30 99 1 34 93
M  V30 100 1 35 63
M  V30 101 1 37 54
M  V30 102 1 38 57
M  V30 103 1 39 73
M  V30 104 1 40 82
M  V30 105 1 42 69
M  V30 106 1 43 75
M  V30 107 1 44 48
M  V30 108 1 45 84
M  V30 END BOND
M  V30 END CTAB
M  END

$$$$
