
     RDKit          3D

  0  0  0  0  0  0  0  0  0  0999 V3000
M  V30 BEGIN CTAB
M  V30 COUNTS 99 108 0 0 0
M  V30 BEGIN ATOM
M  V30 1 Pd -3.6550 -0.5900 3.6185 0
M  V30 2 Pb -4.5017 -0.9012 3.1799 0
M  V30 3 Pb -3.7728 0.3100 3.1933 0
M  V30 4 Pb -3.5415 -1.4894 4.0328 0
M  V30 5 Pb -2.7833 -0.3409 4.0441 0
M  V30 6 Pd 1.7094 8.0525 -0.2374 0
M  V30 7 Pb 2.0727 7.3816 -0.8854 0
M  V30 8 Pb 0.8258 8.0834 -0.7099 0
M  V30 9 Pb 2.5256 7.9452 0.3259 0
M  V30 10 Pb 1.3443 8.7003 0.4271 0
M  V30 11 Pd -0.3354 -2.8081 -5.9753 0
M  V30 12 Pb -0.8349 -3.6242 -5.6911 0
M  V30 13 Pb 0.1983 -1.9933 -6.1829 0
M  V30 14 Pb 0.4449 -3.3391 -6.3032 0
M  V30 15 Pb -1.0698 -2.2718 -5.5557 0
M  V30 16 Pd 3.4154 -4.6217 -3.0451 0
M  V30 17 Pb 3.3936 -4.5601 -4.0437 0
M  V30 18 Pb 2.6652 -5.2827 -3.0847 0
M  V30 19 Pb 4.1744 -3.9677 -2.9759 0
M  V30 20 Pb 3.3938 -4.7364 -2.0521 0
M  V30 21 Pd 4.7549 0.9607 -2.3153 0
M  V30 22 Pb 4.4266 1.9082 -2.3036 0
M  V30 23 Pb 4.3940 0.9072 -3.2430 0
M  V30 24 Pb 5.1158 0.0258 -2.3894 0
M  V30 25 Pb 5.0606 1.0021 -1.3622 0
M  V30 26 Pd -1.6239 -7.2081 1.5208 0
M  V30 27 Pb -1.4067 -7.4578 0.5785 0
M  V30 28 Pb -2.5996 -7.3908 1.4002 0
M  V30 29 Pb -1.8399 -6.8586 2.4271 0
M  V30 30 Pb -0.6688 -6.9262 1.6166 0
M  V30 31 Pd -5.0485 -4.0088 -0.5477 0
M  V30 32 Pb -5.4927 -3.4439 0.1541 0
M  V30 33 Pb -5.2236 -4.8522 -0.0374 0
M  V30 34 Pb -4.8406 -3.2042 -1.1058 0
M  V30 35 Pb -4.6075 -4.5517 -1.2617 0
M  V30 36 Pd 3.1034 3.1600 4.7831 0
M  V30 37 Pb 3.7681 2.6128 4.2741 0
M  V30 38 Pb 2.3925 3.7173 5.2105 0
M  V30 39 Pb 3.5893 3.9780 4.4803 0
M  V30 40 Pb 2.5600 2.3579 5.0246 0
M  V30 41 Pd -2.3410 7.0908 2.2203 0
M  V30 42 Pb -2.4056 7.3264 1.2484 0
M  V30 43 Pb -2.8270 6.2283 2.0704 0
M  V30 44 Pb -2.1335 6.8237 3.1593 0
M  V30 45 Pb -1.8388 7.9404 2.3637 0
M  V30 46 Ag 2.3608 6.8774 -1.3616 0
M  V30 47 Fe 3.2639 4.7231 -1.8038 0
M  V30 48 Ag 4.1843 2.6145 -2.4022 0
M  V30 49 Ag 5.2627 0.9999 -0.6381 0
M  V30 50 Fe 4.7996 1.6016 1.6137 0
M  V30 51 Ag 4.2552 2.2487 3.8345 0
M  V30 52 Ag 2.1041 -5.7804 -3.0567 0
M  V30 53 Fe 0.4213 -6.7499 -1.6902 0
M  V30 54 Ag -1.1749 -7.5543 -0.1270 0
M  V30 55 Ag -1.6152 -1.9251 -5.1718 0
M  V30 56 Fe -3.1721 -2.1745 -3.3931 0
M  V30 57 Ag -4.6377 -2.6640 -1.5870 0
M  V30 58 Ag -1.2368 -4.1824 -5.3968 0
M  V30 59 Fe -2.7606 -4.6757 -3.6455 0
M  V30 60 Ag -4.2634 -4.9092 -1.8233 0
M  V30 61 Ag 3.3024 -4.8879 -1.3234 0
M  V30 62 Fe 1.7541 -5.7627 0.2511 0
M  V30 63 Ag 0.0354 -6.6671 1.6186 0
M  V30 64 Ag 3.0734 7.7952 0.8114 0
M  V30 65 Fe 3.6418 6.2650 2.5322 0
M  V30 66 Ag 3.9124 4.5845 4.1843 0
M  V30 67 Ag -3.4229 -2.1696 4.3164 0
M  V30 68 Fe -2.7457 -4.3880 3.8329 0
M  V30 69 Ag -2.0401 -6.5114 3.0547 0
M  V30 70 Ag -2.1163 -0.2526 4.3800 0
M  V30 71 Fe -0.0157 0.7854 4.7721 0
M  V30 72 Ag 2.0909 1.7994 5.1940 0
M  V30 73 Ag 1.8098 4.1135 5.4648 0
M  V30 74 Fe -0.0772 5.3863 4.7928 0
M  V30 75 Ag -1.8672 6.6064 3.8238 0
M  V30 76 Ag -3.9031 0.9662 2.8492 0
M  V30 77 Fe -3.5109 3.2736 2.4341 0
M  V30 78 Ag -3.1875 5.5793 1.9554 0
M  V30 79 Ag 0.6703 -1.4244 -6.2813 0
M  V30 80 Fe 2.3858 -0.1959 -5.2018 0
M  V30 81 Ag 4.0592 0.8760 -3.9099 0
M  V30 82 Ba -5.1328 -1.1545 2.8563 0
M  V30 83 Ga -5.4660 -2.0861 1.7555 0
M  V30 84 Ba -5.8430 -3.0103 0.6625 0
M  V30 85 Ba 4.7655 -3.5057 -2.8991 0
M  V30 86 Ga 5.0435 -2.0673 -2.6841 0
M  V30 87 Ba 5.4321 -0.6549 -2.4691 0
M  V30 88 Ba 1.0290 9.1472 0.9358 0
M  V30 89 Ga -0.1923 8.9264 1.7228 0
M  V30 90 Ba -1.4268 8.5598 2.4311 0
M  V30 91 Ba 0.1237 8.0865 -0.9818 0
M  V30 92 Ga -1.1542 7.8082 -0.2897 0
M  V30 93 Ba -2.3561 7.5082 0.5197 0
M  V30 94 Ba 1.0813 -3.6829 -6.4994 0
M  V30 95 Ga 2.2223 -4.1363 -5.6813 0
M  V30 96 Ba 3.3194 -4.5618 -4.7909 0
M  V30 97 Ba -3.3452 -7.4510 1.3419 0
M  V30 98 Ga -4.3605 -6.5106 0.8274 0
M  V30 99 Ba -5.3168 -5.5198 0.2947 0
M  V30 END ATOM
M  V30 BEGIN BOND
M  V30 1 1 1 2
M  V30 2 1 1 3
M  V30 3 1 1 4
M  V30 4 1 1 5
M  V30 5 1 6 7
M  V30 6 1 6 8
M  V30 7 1 6 9
M  V30 8 1 6 10
M  V30 9 1 11 12
M  V30 10 1 11 13
M  V30 11 1 11 14
M  V30 12 1 11 15
M  V30 13 1 16 17
M  V30 14 1 16 18
M  V30 15 1 16 19
M  V30 16 1 16 20
M  V30 17 1 21 22
M  V30 18 1 21 23
M  V30 19 1 21 24
M  V30 20 1 21 25
M  V30 21 1 26 27
M  V30 22 1 26 28
M  V30 23 1 26 29
M  V30 24 1 26 30
M  V30 25 1 31 32
M  V30 26 1 31 33
M  V30 27 1 31 34
M  V30 28 1 31 35
M  V30 29 1 36 37
M  V30 30 1 36 38
M  V30 31 1 36 39
M  V30 32 1 36 40
M  V30 33 1 41 42
M  V30 34 1 41 43
M  V30 35 1 41 44
M  V30 36 1 41 45
M  V30 37 1 46 47
M  V30 38 1 47 48
M  V30 39 1 49 50
M  V30 40 1 50 51
M  V30 41 1 52 53
M  V30 42 1 53 54
M  V30 43 1 55 56
M  V30 44 1 56 57
M  V30 45 1 58 59
M  V30 46 1 59 60
M  V30 47 1 61 62
M  V30 48 1 62 63
M  V30 49 1 64 65
M  V30 50 1 65 66
M  V30 51 1 67 68
M  V30 52 1 68 69
M  V30 53 1 70 71
M  V30 54 1 71 72
M  V30 55 1 73 74
M  V30 56 1 74 75
M  V30 57 1 76 77
M  V30 58 1 77 78
M  V30 59 1 79 80
M  V30 60 1 80 81
M  V30 61 1 82 83
M  V30 62 1 83 84
M  V30 63 1 85 86
M  V30 64 1 86 87
M  V30 65 1 88 89
M  V30 66 1 89 90
M  V30 67 1 91 92
M  V30 68 1 92 93
M  V30 69 1 94 95
M  V30 70 1 95 96
M  V30 71 1 97 98
M  V30 72 1 98 99
M  V30 73 1 2 82
M  V30 74 1 3 76
M  V30 75 1 4 67
M  V30 76 1 5 70
M  V30 77 1 7 46
M  V30 78 1 8 91
M  V30 79 1 9 64
M  V30 80 1 10 88
M  V30 81 1 12 58
M  V30 82 1 13 79
M  V30 83 1 14 94
M  V30 84 1 15 55
M  V30 85 1 17 96
M  V30 86 1 18 52
M  V30 87 1 19 85
M  V30 88 1 20 61
M  V30 89 1 22 48
M  V30 90 1 23 81
M  V30 91 1 24 87
M  V30 92 1 25 49
M  V30 93 1 27 54
M  V30 94 1 28 97
M  V30 95 1 29 69
M  V30 96 1 30 63
M  V30 97 1 32 84
M  V30 98 1 33 99
M  V30 99 1 34 57
M  V30 100 1 35 60
M  V30 101 1 37 51
M  V30 102 1 38 73
M  V30 103 1 39 66
M  V30 104 1 40 72
M  V30 105 1 42 93
M  V30 106 1 43 78
M  V30 107 1 44 75
M  V30 108 1 45 90
M  V30 END BOND
M  V30 END CTAB
M  END

$$$$
