
     RDKit          3D

  0  0  0  0  0  0  0  0  0  0999 V3000
M  V30 BEGIN CTAB
M  V30 COUNTS 99 108 0 0 0
M  V30 BEGIN ATOM
M  V30 1 Pd -1.1789 -3.2867 4.3240 0
M  V30 2 Pb -2.0940 -2.9473 4.5444 0
M  V30 3 Pb -0.2530 -3.6023 4.1118 0
M  V30 4 Pb -0.8236 -2.6518 5.0056 0
M  V30 5 Pb -1.5353 -3.9096 3.6298 0
M  V30 6 Pd 3.9974 -2.5327 -4.0252 0
M  V30 7 Pb 3.4578 -1.8973 -3.4687 0
M  V30 8 Pb 4.5579 -3.1408 -4.5811 0
M  V30 9 Pb 3.2451 -2.7419 -4.6469 0
M  V30 10 Pb 4.6823 -2.5795 -3.2825 0
M  V30 11 Pd -4.1961 3.6898 -2.4612 0
M  V30 12 Pb -4.4852 2.7454 -2.5712 0
M  V30 13 Pb -3.8499 3.7141 -3.3992 0
M  V30 14 Pb -3.8757 4.6229 -2.3195 0
M  V30 15 Pb -4.4813 3.6655 -1.4865 0
M  V30 16 Pd 1.4864 7.1510 0.8440 0
M  V30 17 Pb 0.6373 7.3656 0.3674 0
M  V30 18 Pb 1.0113 7.2218 1.7389 0
M  V30 19 Pb 1.8999 6.9463 -0.0428 0
M  V30 20 Pb 2.3291 6.9191 1.3181 0
M  V30 21 Pd 0.2584 1.8505 -4.0952 0
M  V30 22 Pb 0.8652 1.3123 -3.5076 0
M  V30 23 Pb -0.3953 2.3747 -4.6406 0
M  V30 24 Pb 0.8435 2.6558 -3.9839 0
M  V30 25 Pb -0.3443 1.0580 -4.1543 0
M  V30 26 Pd -0.2318 4.0774 5.5520 0
M  V30 27 Pb -0.2743 4.9747 5.0751 0
M  V30 28 Pb -1.2311 3.9793 5.5441 0
M  V30 29 Pb -0.1535 3.1853 5.9910 0
M  V30 30 Pb 0.7591 4.1580 5.5679 0
M  V30 31 Pd -4.4155 1.1008 3.0491 0
M  V30 32 Pb -4.3588 0.3288 3.6859 0
M  V30 33 Pb -4.2268 1.7654 3.7789 0
M  V30 34 Pb -4.5545 1.8680 2.3971 0
M  V30 35 Pb -4.6234 0.4584 2.3196 0
M  V30 36 Pd -0.0999 -5.5803 -2.8231 0
M  V30 37 Pb -0.6683 -4.7977 -3.0650 0
M  V30 38 Pb 0.4556 -6.3748 -2.5523 0
M  V30 39 Pb 0.4056 -5.3566 -3.6628 0
M  V30 40 Pb -0.6419 -5.7314 -1.9978 0
M  V30 41 Pd 4.4628 -6.3303 -0.3819 0
M  V30 42 Pb 4.9502 -6.7567 -1.1387 0
M  V30 43 Pb 4.0234 -5.9366 0.4280 0
M  V30 44 Pb 3.7726 -7.0460 -0.4659 0
M  V30 45 Pb 5.0299 -5.4989 -0.4927 0
M  V30 46 Ag -0.7872 0.4561 -4.1559 0
M  V30 47 Fe -0.9900 -1.8689 -3.7345 0
M  V30 48 Ag -1.0552 -4.1951 -3.2777 0
M  V30 49 Ag 2.1374 6.7123 -0.7144 0
M  V30 50 Fe 1.7841 5.0315 -2.3559 0
M  V30 51 Ag 1.2671 3.2634 -3.8565 0
M  V30 52 Ag 4.9568 -3.6991 -4.8593 0
M  V30 53 Fe 5.4881 -5.6985 -3.7473 0
M  V30 54 Ag 5.2928 -6.9478 -1.7673 0
M  V30 55 Ag -4.6724 2.0332 -2.4954 0
M  V30 56 Fe -4.8449 0.6641 -0.5840 0
M  V30 57 Ag -4.7746 0.0814 1.6995 0
M  V30 58 Ag 2.8536 6.6749 1.7796 0
M  V30 59 Fe 2.6511 5.4289 3.7682 0
M  V30 60 Ag 1.4815 4.2848 5.4630 0
M  V30 61 Ag -3.6018 5.3009 -2.1689 0
M  V30 62 Fe -1.8390 6.4860 -1.1157 0
M  V30 63 Ag 0.0047 7.4866 -0.0109 0
M  V30 64 Ag -0.5946 -2.1434 5.5026 0
M  V30 65 Fe -0.3075 0.1648 5.9646 0
M  V30 66 Ag -0.0757 2.5029 6.2852 0
M  V30 67 Ag -1.7651 -4.3735 3.0893 0
M  V30 68 Fe -1.4506 -5.1345 0.8634 0
M  V30 69 Ag -1.0461 -5.8172 -1.3733 0
M  V30 70 Ag 0.4445 -3.8332 3.9569 0
M  V30 71 Fe 2.0556 -4.7465 2.4673 0
M  V30 72 Ag 3.7503 -5.6505 1.0677 0
M  V30 73 Ba 3.1128 -1.4121 -3.0087 0
M  V30 74 Ga 2.1892 -0.2606 -3.0728 0
M  V30 75 Ba 1.2730 0.8979 -3.0313 0
M  V30 76 Ba -2.7578 -2.6644 4.7519 0
M  V30 77 Ga -3.5494 -1.4599 4.4278 0
M  V30 78 Ba -4.3778 -0.2712 4.1397 0
M  V30 79 Ba 0.6248 7.2676 2.3983 0
M  V30 80 Ga 0.1980 6.4121 3.5479 0
M  V30 81 Ba -0.2909 5.6686 4.7493 0
M  V30 82 Ba -4.6859 3.7181 -0.7510 0
M  V30 83 Ga -4.6566 3.0082 0.5623 0
M  V30 84 Ba -4.7247 2.4678 1.9525 0
M  V30 85 Ba 5.1570 -2.6976 -2.6966 0
M  V30 86 Ga 5.2886 -3.7720 -1.6661 0
M  V30 87 Ba 5.4098 -4.8528 -0.6410 0
M  V30 88 Ba 2.7186 -3.0674 -5.0713 0
M  V30 89 Ga 1.6891 -4.0696 -4.7099 0
M  V30 90 Ba 0.6765 -5.0749 -4.3111 0
M  V30 91 Ba 0.8023 -6.9857 -2.2692 0
M  V30 92 Ga 2.0100 -7.2762 -1.4632 0
M  V30 93 Ba 3.2317 -7.5252 -0.6646 0
M  V30 94 Ba -1.9797 3.8936 5.5736 0
M  V30 95 Ga -3.0219 3.0719 4.9167 0
M  V30 96 Ba -4.1246 2.2902 4.3118 0
M  V30 97 Ba -3.5422 3.7382 -4.0830 0
M  V30 98 Ga -2.2438 3.2572 -4.5917 0
M  V30 99 Ba -0.9276 2.7451 -5.0172 0
M  V30 END ATOM
M  V30 BEGIN BOND
M  V30 1 1 1 2
M  V30 2 1 1 3
M  V30 3 1 1 4
M  V30 4 1 1 5
M  V30 5 1 6 7
M  V30 6 1 6 8
M  V30 7 1 6 9
M  V30 8 1 6 10
M  V30 9 1 11 12
M  V30 10 1 11 13
M  V30 11 1 11 14
M  V30 12 1 11 15
M  V30 13 1 16 17
M  V30 14 1 16 18
M  V30 15 1 16 19
M  V30 16 1 16 20
M  V30 17 1 21 22
M  V30 18 1 21 23
M  V30 19 1 21 24
M  V30 20 1 21 25
M  V30 21 1 26 27
M  V30 22 1 26 28
M  V30 23 1 26 29
M  V30 24 1 26 30
M  V30 25 1 31 32
M  V30 26 1 31 33
M  V30 27 1 31 34
M  V30 28 1 31 35
M  V30 29 1 36 37
M  V30 30 1 36 38
M  V30 31 1 36 39
M  V30 32 1 36 40
M  V30 33 1 41 42
M  V30 34 1 41 43
M  V30 35 1 41 44
M  V30 36 1 41 45
M  V30 37 1 46 47
M  V30 38 1 47 48
M  V30 39 1 49 50
M  V30 40 1 50 51
M  V30 41 1 52 53
M  V30 42 1 53 54
M  V30 43 1 55 56
M  V30 44 1 56 57
M  V30 45 1 58 59
M  V30 46 1 59 60
M  V30 47 1 61 62
M  V30 48 1 62 63
M  V30 49 1 64 65
M  V30 50 1 65 66
M  V30 51 1 67 68
M  V30 52 1 68 69
M  V30 53 1 70 71
M  V30 54 1 71 72
M  V30 55 1 73 74
M  V30 56 1 74 75
M  V30 57 1 76 77
M  V30 58 1 77 78
M  V30 59 1 79 80
M  V30 60 1 80 81
M  V30 61 1 82 83
M  V30 62 1 83 84
M  V30 63 1 85 86
M  V30 64 1 86 87
M  V30 65 1 88 89
M  V30 66 1 89 90
M  V30 67 1 91 92
M  V30 68 1 92 93
M  V30 69 1 94 95
M  V30 70 1 95 96
M  V30 71 1 97 98
M  V30 72 1 98 99
M  V30 73 1 2 76
M  V30 74 1 3 70
M  V30 75 1 4 64
M  V30 76 1 5 67
M  V30 77 1 7 73
M  V30 78 1 8 52
M  V30 79 1 9 88
M  V30 80 1 10 85
M  V30 81 1 12 55
M  V30 82 1 13 97
M  V30 83 1 14 61
M  V30 84 1 15 82
M  V30 85 1 17 63
M  V30 86 1 18 79
M  V30 87 1 19 49
M  V30 88 1 20 58
M  V30 89 1 22 75
M  V30 90 1 23 99
M  V30 91 1 24 51
M  V30 92 1 25 46
M  V30 93 1 27 81
M  V30 94 1 28 94
M  V30 95 1 29 66
M  V30 96 1 30 60
M  V30 97 1 32 78
M  V30 98 1 33 96
M  V30 99 1 34 84
M  V30 100 1 35 57
M  V30 101 1 37 48
M  V30 102 1 38 91
M  V30 103 1 39 90
M  V30 104 1 40 69
M  V30 105 1 42 54
M  V30 106 1 43 72
M  V30 107 1 44 93
M  V30 108 1 45 87
M  V30 END BOND
M  V30 END CTAB
M  END

$$$$
