
     RDKit          3D

  0  0  0  0  0  0  0  0  0  0999 V3000
M  V30 BEGIN CTAB
M  V30 COUNTS 99 108 0 0 0
M  V30 BEGIN ATOM
M  V30 1 Pd 0.7933 -5.0828 -0.3720 0
M  V30 2 Pb -0.0089 -5.0053 -0.9628 0
M  V30 3 Pb 1.6109 -5.1866 0.1921 0
M  V30 4 Pb 1.3587 -4.8338 -1.1575 0
M  V30 5 Pb 0.2149 -5.3396 0.4057 0
M  V30 6 Pd 3.1097 1.9087 7.8015 0
M  V30 7 Pb 2.9351 2.4648 6.9898 0
M  V30 8 Pb 3.2600 1.2784 8.5566 0
M  V30 9 Pb 2.1328 1.8072 7.9637 0
M  V30 10 Pb 4.0543 1.7364 7.5234 0
M  V30 11 Pd -5.6572 2.9377 -4.6181 0
M  V30 12 Pb -6.0133 2.0276 -4.4126 0
M  V30 13 Pb -5.7474 3.2067 -3.6595 0
M  V30 14 Pb -5.2261 3.8109 -4.8307 0
M  V30 15 Pb -5.4917 2.6445 -5.5579 0
M  V30 16 Pd 1.1836 5.8093 -4.3196 0
M  V30 17 Pb 0.2684 6.0238 -4.6538 0
M  V30 18 Pb 1.3298 5.1569 -5.0879 0
M  V30 19 Pb 0.9809 6.3365 -3.4957 0
M  V30 20 Pb 2.0839 5.5871 -3.9637 0
M  V30 21 Pd -1.7628 3.7749 1.9568 0
M  V30 22 Pb -0.9023 3.7561 2.4683 0
M  V30 23 Pb -2.6266 3.8310 1.4535 0
M  V30 24 Pb -1.4743 4.6514 1.5712 0
M  V30 25 Pb -2.0266 2.8572 2.2625 0
M  V30 26 Pd 2.2018 0.1391 -5.8119 0
M  V30 27 Pb 1.9948 1.0864 -6.1282 0
M  V30 28 Pb 1.4801 -0.2586 -6.3846 0
M  V30 29 Pb 2.4159 -0.7724 -5.4630 0
M  V30 30 Pb 2.9476 0.5028 -5.2661 0
M  V30 31 Pd -3.3269 -1.3576 -5.9470 0
M  V30 32 Pb -3.0787 -2.1120 -5.3385 0
M  V30 33 Pb -2.4700 -1.4302 -6.4625 0
M  V30 34 Pb -3.6219 -0.6193 -6.5526 0
M  V30 35 Pb -4.1849 -1.2588 -5.4409 0
M  V30 36 Pd -0.8013 -3.4787 4.9204 0
M  V30 37 Pb -1.3312 -2.8050 4.4029 0
M  V30 38 Pb -0.2857 -4.1603 5.4512 0
M  V30 39 Pb -0.7510 -2.7819 5.6397 0
M  V30 40 Pb -0.9152 -4.1671 4.1991 0
M  V30 41 Pd 4.3107 -4.4783 6.4602 0
M  V30 42 Pb 4.2030 -4.1634 7.3983 0
M  V30 43 Pb 4.4055 -4.7553 5.5064 0
M  V30 44 Pb 3.4932 -5.0474 6.5517 0
M  V30 45 Pb 5.0216 -3.7774 6.3609 0
M  V30 46 Ag 2.7856 2.8405 6.3588 0
M  V30 47 Fe 1.2540 3.3142 4.6057 0
M  V30 48 Ag -0.2483 3.8123 2.8341 0
M  V30 49 Ag -0.5861 -4.9604 -1.4387 0
M  V30 50 Fe -1.7506 -3.7967 -3.1506 0
M  V30 51 Ag -2.9580 -2.6820 -4.8654 0
M  V30 52 Ag -2.2545 2.1566 2.4169 0
M  V30 53 Fe -1.9594 -0.0501 3.2507 0
M  V30 54 Ag -1.7398 -2.2733 4.0639 0
M  V30 55 Ag 0.7728 6.6426 -2.8445 0
M  V30 56 Fe -0.2167 6.0947 -0.7569 0
M  V30 57 Ag -1.2186 5.2692 1.2313 0
M  V30 58 Ag 4.6877 1.4044 7.2953 0
M  V30 59 Fe 5.3136 -0.8257 6.7572 0
M  V30 60 Ag 5.4559 -3.1622 6.3365 0
M  V30 61 Ag 3.3640 0.7094 9.0239 0
M  V30 62 Fe 3.7558 -1.6155 8.8330 0
M  V30 63 Ag 4.1299 -3.8171 8.0529 0
M  V30 64 Ag 2.7198 5.2779 -3.7487 0
M  V30 65 Fe 3.5291 3.0916 -4.0743 0
M  V30 66 Ag 3.4480 0.8774 -4.8700 0
M  V30 67 Ag -4.8366 4.4253 -4.9983 0
M  V30 68 Fe -2.6692 5.3870 -4.9733 0
M  V30 69 Ag -0.4340 6.1715 -4.8628 0
M  V30 70 Ag 1.4395 1.5360 8.0212 0
M  V30 71 Fe 0.2226 -0.3017 7.1351 0
M  V30 72 Ag -0.7773 -2.2052 6.1238 0
M  V30 73 Ag 1.7547 -4.6440 -1.7646 0
M  V30 74 Fe 2.1928 -3.0632 -3.4810 0
M  V30 75 Ag 2.5832 -1.4418 -5.1707 0
M  V30 76 Ag 2.2288 -5.2771 0.6051 0
M  V30 77 Fe 3.3583 -5.1208 2.6860 0
M  V30 78 Ag 4.4506 -4.9480 4.7854 0
M  V30 79 Ag -5.7667 3.3967 -2.9345 0
M  V30 80 Fe -4.5462 3.6464 -0.9117 0
M  V30 81 Ag -3.2790 3.8789 1.0843 0
M  V30 82 Ba 1.4106 4.6637 -5.6717 0
M  V30 83 Ga 1.6439 3.2116 -5.9567 0
M  V30 84 Ba 1.8691 1.7970 -6.3952 0
M  V30 85 Ba -5.3164 2.3960 -6.2415 0
M  V30 86 Ga -4.6028 1.1778 -6.6620 0
M  V30 87 Ba -3.8821 -0.0656 -6.9854 0
M  V30 88 Ba -6.2225 1.3198 -4.2864 0
M  V30 89 Ga -5.5606 0.0548 -4.6562 0
M  V30 90 Ba -4.8284 -1.1576 -5.0672 0
M  V30 91 Ba -0.2288 -5.5555 0.9738 0
M  V30 92 Ga -0.6002 -5.0910 2.3278 0
M  V30 93 Ba -1.0333 -4.7091 3.6892 0
M  V30 94 Ba 0.0747 -4.7138 5.8193 0
M  V30 95 Ga 1.4579 -5.0573 6.2187 0
M  V30 96 Ba 2.8380 -5.4072 6.6234 0
M  V30 97 Ba 0.9794 -0.6015 -6.8313 0
M  V30 98 Ga -0.4411 -1.0128 -6.8155 0
M  V30 99 Ba -1.8489 -1.4607 -6.8865 0
M  V30 END ATOM
M  V30 BEGIN BOND
M  V30 1 1 1 2
M  V30 2 1 1 3
M  V30 3 1 1 4
M  V30 4 1 1 5
M  V30 5 1 6 7
M  V30 6 1 6 8
M  V30 7 1 6 9
M  V30 8 1 6 10
M  V30 9 1 11 12
M  V30 10 1 11 13
M  V30 11 1 11 14
M  V30 12 1 11 15
M  V30 13 1 16 17
M  V30 14 1 16 18
M  V30 15 1 16 19
M  V30 16 1 16 20
M  V30 17 1 21 22
M  V30 18 1 21 23
M  V30 19 1 21 24
M  V30 20 1 21 25
M  V30 21 1 26 27
M  V30 22 1 26 28
M  V30 23 1 26 29
M  V30 24 1 26 30
M  V30 25 1 31 32
M  V30 26 1 31 33
M  V30 27 1 31 34
M  V30 28 1 31 35
M  V30 29 1 36 37
M  V30 30 1 36 38
M  V30 31 1 36 39
M  V30 32 1 36 40
M  V30 33 1 41 42
M  V30 34 1 41 43
M  V30 35 1 41 44
M  V30 36 1 41 45
M  V30 37 1 46 47
M  V30 38 1 47 48
M  V30 39 1 49 50
M  V30 40 1 50 51
M  V30 41 1 52 53
M  V30 42 1 53 54
M  V30 43 1 55 56
M  V30 44 1 56 57
M  V30 45 1 58 59
M  V30 46 1 59 60
M  V30 47 1 61 62
M  V30 48 1 62 63
M  V30 49 1 64 65
M  V30 50 1 65 66
M  V30 51 1 67 68
M  V30 52 1 68 69
M  V30 53 1 70 71
M  V30 54 1 71 72
M  V30 55 1 73 74
M  V30 56 1 74 75
M  V30 57 1 76 77
M  V30 58 1 77 78
M  V30 59 1 79 80
M  V30 60 1 80 81
M  V30 61 1 82 83
M  V30 62 1 83 84
M  V30 63 1 85 86
M  V30 64 1 86 87
M  V30 65 1 88 89
M  V30 66 1 89 90
M  V30 67 1 91 92
M  V30 68 1 92 93
M  V30 69 1 94 95
M  V30 70 1 95 96
M  V30 71 1 97 98
M  V30 72 1 98 99
M  V30 73 1 2 49
M  V30 74 1 3 76
M  V30 75 1 4 73
M  V30 76 1 5 91
M  V30 77 1 7 46
M  V30 78 1 8 61
M  V30 79 1 9 70
M  V30 80 1 10 58
M  V30 81 1 12 88
M  V30 82 1 13 79
M  V30 83 1 14 67
M  V30 84 1 15 85
M  V30 85 1 17 69
M  V30 86 1 18 82
M  V30 87 1 19 55
M  V30 88 1 20 64
M  V30 89 1 22 48
M  V30 90 1 23 81
M  V30 91 1 24 57
M  V30 92 1 25 52
M  V30 93 1 27 84
M  V30 94 1 28 97
M  V30 95 1 29 75
M  V30 96 1 30 66
M  V30 97 1 32 51
M  V30 98 1 33 99
M  V30 99 1 34 87
M  V30 100 1 35 90
M  V30 101 1 37 54
M  V30 102 1 38 94
M  V30 103 1 39 72
M  V30 104 1 40 93
M  V30 105 1 42 63
M  V30 106 1 43 78
M  V30 107 1 44 96
M  V30 108 1 45 60
M  V30 END BOND
M  V30 END CTAB
M  END

$$$$
