
     RDKit          3D

  0  0  0  0  0  0  0  0  0  0999 V3000
M  V30 BEGIN CTAB
M  V30 COUNTS 99 108 0 0 0
M  V30 BEGIN ATOM
M  V30 1 Pd 1.2995 3.1776 -0.7873 0
M  V30 2 Pb 1.4294 3.6695 -1.6497 0
M  V30 3 Pb 1.1149 2.6617 0.0490 0
M  V30 4 Pb 0.3643 3.5198 -0.7363 0
M  V30 5 Pb 2.2244 2.7952 -0.8413 0
M  V30 6 Pd 1.4205 0.0145 8.1288 0
M  V30 7 Pb 1.2466 -0.9130 7.7946 0
M  V30 8 Pb 0.4688 0.2626 7.9505 0
M  V30 9 Pb 2.3986 -0.1870 8.1902 0
M  V30 10 Pb 1.5805 0.9613 8.4126 0
M  V30 11 Pd -0.3564 -2.9921 -5.2474 0
M  V30 12 Pb 0.3328 -2.2704 -5.2911 0
M  V30 13 Pb 0.2477 -3.5412 -4.6752 0
M  V30 14 Pb -1.0300 -3.7296 -5.1760 0
M  V30 15 Pb -0.9772 -2.4131 -5.7803 0
M  V30 16 Pd -4.8965 -3.3948 -2.7617 0
M  V30 17 Pb -4.3942 -4.1509 -3.1746 0
M  V30 18 Pb -5.3608 -3.2720 -3.6313 0
M  V30 19 Pb -4.4563 -3.5585 -1.8743 0
M  V30 20 Pb -5.3530 -2.5536 -2.4183 0
M  V30 21 Pd 1.2247 -4.7417 2.0239 0
M  V30 22 Pb 1.0712 -4.5885 3.0019 0
M  V30 23 Pb 1.3972 -4.8971 1.0530 0
M  V30 24 Pb 0.2398 -4.6679 1.8475 0
M  V30 25 Pb 2.2127 -4.7619 2.1779 0
M  V30 26 Pd -5.5353 2.3176 -3.8318 0
M  V30 27 Pb -5.9863 1.8725 -4.5971 0
M  V30 28 Pb -5.1452 2.9992 -4.4491 0
M  V30 29 Pb -5.0638 2.7693 -3.0783 0
M  V30 30 Pb -5.8316 1.5595 -3.2210 0
M  V30 31 Pd -0.6606 2.3153 -5.6945 0
M  V30 32 Pb -0.1001 3.0428 -5.2927 0
M  V30 33 Pb -1.4308 2.9481 -5.8063 0
M  V30 34 Pb -1.2035 1.5688 -6.0877 0
M  V30 35 Pb 0.1093 1.6863 -5.5995 0
M  V30 36 Pd 6.7260 -0.0184 3.2113 0
M  V30 37 Pb 6.6937 -1.0029 3.0483 0
M  V30 38 Pb 6.6174 0.9592 3.3726 0
M  V30 39 Pb 6.7208 -0.1906 4.1968 0
M  V30 40 Pb 6.5991 0.1773 2.2396 0
M  V30 41 Pd 0.8044 3.4045 5.0269 0
M  V30 42 Pb -0.0260 2.9929 5.4027 0
M  V30 43 Pb 0.6593 2.9187 4.1632 0
M  V30 44 Pb 1.6884 3.7410 4.7091 0
M  V30 45 Pb 1.0160 3.7446 5.9409 0
M  V30 46 Ag 1.1087 -1.5974 7.5174 0
M  V30 47 Fe 1.0356 -3.0470 5.6354 0
M  V30 48 Ag 0.9703 -4.4775 3.7385 0
M  V30 49 Ag 2.9569 -4.7300 2.2657 0
M  V30 50 Fe 4.8395 -3.3236 2.6042 0
M  V30 51 Ag 6.5692 -1.7342 2.9482 0
M  V30 52 Ag -4.1525 -3.7098 -1.2011 0
M  V30 53 Fe -2.3040 -4.1444 0.2321 0
M  V30 54 Ag -0.4972 -4.5847 1.7159 0
M  V30 55 Ag -5.7068 -3.0634 -4.2514 0
M  V30 56 Fe -6.2403 -0.9451 -5.1270 0
M  V30 57 Ag -6.2675 1.4074 -5.0980 0
M  V30 58 Ag 3.1372 -0.3125 8.1474 0
M  V30 59 Fe 4.9740 -0.3482 6.6412 0
M  V30 60 Ag 6.6222 -0.3113 4.9308 0
M  V30 61 Ag -0.3518 3.7290 -0.6967 0
M  V30 62 Fe -2.5408 3.4744 -1.5723 0
M  V30 63 Ag -4.6732 3.1215 -2.5479 0
M  V30 64 Ag 2.9087 2.4843 -0.8731 0
M  V30 65 Fe 4.7090 1.4250 0.2601 0
M  V30 66 Ag 6.4175 0.3837 1.5421 0
M  V30 67 Ag 6.4125 1.6712 3.4644 0
M  V30 68 Fe 4.4894 2.9601 3.9760 0
M  V30 69 Ag 2.3897 3.9179 4.5200 0
M  V30 70 Ag 0.6666 -3.9492 -4.2104 0
M  V30 71 Fe 1.1378 -4.5048 -1.9529 0
M  V30 72 Ag 1.5493 -5.0072 0.3287 0
M  V30 73 Ba 1.4875 4.0326 -2.3049 0
M  V30 74 Ga 0.9187 3.8087 -3.6503 0
M  V30 75 Ba 0.3420 3.5712 -4.9900 0
M  V30 76 Ba -1.4307 -1.9490 -6.1609 0
M  V30 77 Ga -1.5211 -0.4772 -6.2771 0
M  V30 78 Ba -1.5958 0.9963 -6.3806 0
M  V30 79 Ba 1.6591 1.6922 8.5671 0
M  V30 80 Ga 1.4525 2.8526 7.6814 0
M  V30 81 Ba 1.2031 3.8785 6.6526 0
M  V30 82 Ba -0.2070 0.5104 7.7413 0
M  V30 83 Ga -0.4981 1.5653 6.7530 0
M  V30 84 Ba -0.5910 2.6369 5.7442 0
M  V30 85 Ba 0.8460 -1.7255 -5.3146 0
M  V30 86 Ga 0.7776 -0.2581 -5.4255 0
M  V30 87 Ba 0.6815 1.2076 -5.5375 0
M  V30 88 Ba -5.7065 -1.9192 -2.1721 0
M  V30 89 Ga -5.8372 -0.4672 -2.5100 0
M  V30 90 Ba -6.0474 0.9951 -2.7478 0
M  V30 91 Ba -1.4986 -4.3088 -5.0762 0
M  V30 92 Ga -2.7490 -4.5157 -4.3224 0
M  V30 93 Ba -3.9989 -4.6600 -3.5534 0
M  V30 94 Ba 0.9142 2.2569 0.6476 0
M  V30 95 Ga 0.7667 2.4244 2.1069 0
M  V30 96 Ba 0.5751 2.4644 3.5701 0
M  V30 97 Ba -4.7892 3.4773 -4.9030 0
M  V30 98 Ga -3.4040 3.4714 -5.4147 0
M  V30 99 Ba -2.0100 3.4203 -5.8993 0
M  V30 END ATOM
M  V30 BEGIN BOND
M  V30 1 1 1 2
M  V30 2 1 1 3
M  V30 3 1 1 4
M  V30 4 1 1 5
M  V30 5 1 6 7
M  V30 6 1 6 8
M  V30 7 1 6 9
M  V30 8 1 6 10
M  V30 9 1 11 12
M  V30 10 1 11 13
M  V30 11 1 11 14
M  V30 12 1 11 15
M  V30 13 1 16 17
M  V30 14 1 16 18
M  V30 15 1 16 19
M  V30 16 1 16 20
M  V30 17 1 21 22
M  V30 18 1 21 23
M  V30 19 1 21 24
M  V30 20 1 21 25
M  V30 21 1 26 27
M  V30 22 1 26 28
M  V30 23 1 26 29
M  V30 24 1 26 30
M  V30 25 1 31 32
M  V30 26 1 31 33
M  V30 27 1 31 34
M  V30 28 1 31 35
M  V30 29 1 36 37
M  V30 30 1 36 38
M  V30 31 1 36 39
M  V30 32 1 36 40
M  V30 33 1 41 42
M  V30 34 1 41 43
M  V30 35 1 41 44
M  V30 36 1 41 45
M  V30 37 1 46 47
M  V30 38 1 47 48
M  V30 39 1 49 50
M  V30 40 1 50 51
M  V30 41 1 52 53
M  V30 42 1 53 54
M  V30 43 1 55 56
M  V30 44 1 56 57
M  V30 45 1 58 59
M  V30 46 1 59 60
M  V30 47 1 61 62
M  V30 48 1 62 63
M  V30 49 1 64 65
M  V30 50 1 65 66
M  V30 51 1 67 68
M  V30 52 1 68 69
M  V30 53 1 70 71
M  V30 54 1 71 72
M  V30 55 1 73 74
M  V30 56 1 74 75
M  V30 57 1 76 77
M  V30 58 1 77 78
M  V30 59 1 79 80
M  V30 60 1 80 81
M  V30 61 1 82 83
M  V30 62 1 83 84
M  V30 63 1 85 86
M  V30 64 1 86 87
M  V30 65 1 88 89
M  V30 66 1 89 90
M  V30 67 1 91 92
M  V30 68 1 92 93
M  V30 69 1 94 95
M  V30 70 1 95 96
M  V30 71 1 97 98
M  V30 72 1 98 99
M  V30 73 1 2 73
M  V30 74 1 3 94
M  V30 75 1 4 61
M  V30 76 1 5 64
M  V30 77 1 7 46
M  V30 78 1 8 82
M  V30 79 1 9 58
M  V30 80 1 10 79
M  V30 81 1 12 85
M  V30 82 1 13 70
M  V30 83 1 14 91
M  V30 84 1 15 76
M  V30 85 1 17 93
M  V30 86 1 18 55
M  V30 87 1 19 52
M  V30 88 1 20 88
M  V30 89 1 22 48
M  V30 90 1 23 72
M  V30 91 1 24 54
M  V30 92 1 25 49
M  V30 93 1 27 57
M  V30 94 1 28 97
M  V30 95 1 29 63
M  V30 96 1 30 90
M  V30 97 1 32 75
M  V30 98 1 33 99
M  V30 99 1 34 78
M  V30 100 1 35 87
M  V30 101 1 37 51
M  V30 102 1 38 67
M  V30 103 1 39 60
M  V30 104 1 40 66
M  V30 105 1 42 84
M  V30 106 1 43 96
M  V30 107 1 44 69
M  V30 108 1 45 81
M  V30 END BOND
M  V30 END CTAB
M  END

$$$$
