
     RDKit          3D

  0  0  0  0  0  0  0  0  0  0999 V3000
M  V30 BEGIN CTAB
M  V30 COUNTS 99 108 0 0 0
M  V30 BEGIN ATOM
M  V30 1 Pd -3.2263 3.4880 0.8505 0
M  V30 2 Pb -2.4760 4.0689 1.1828 0
M  V30 3 Pb -3.6874 3.5161 1.7394 0
M  V30 4 Pb -2.8390 3.4571 -0.0697 0
M  V30 5 Pb -3.9488 2.8730 0.5424 0
M  V30 6 Pd -1.6977 -0.3591 -5.9063 0
M  V30 7 Pb -1.7720 -1.0817 -5.2185 0
M  V30 8 Pb -1.3618 -1.0395 -6.5505 0
M  V30 9 Pb -1.8755 0.3660 -5.2395 0
M  V30 10 Pb -1.4295 0.3519 -6.5481 0
M  V30 11 Pd 2.4165 -2.4585 -4.6823 0
M  V30 12 Pb 2.8664 -2.4495 -3.7904 0
M  V30 13 Pb 1.9891 -2.5347 -5.5836 0
M  V30 14 Pb 3.2492 -2.0473 -5.0614 0
M  V30 15 Pb 1.5469 -2.7651 -4.2850 0
M  V30 16 Pd 2.4321 3.7956 0.7631 0
M  V30 17 Pb 3.2246 3.3335 0.3562 0
M  V30 18 Pb 2.7921 3.5736 1.6728 0
M  V30 19 Pb 2.1487 4.0909 -0.1481 0
M  V30 20 Pb 1.6327 4.2599 1.1587 0
M  V30 21 Pd 2.1554 -4.6958 0.5439 0
M  V30 22 Pb 1.5447 -5.1532 1.1893 0
M  V30 23 Pb 2.7968 -4.4907 1.2787 0
M  V30 24 Pb 2.7275 -4.1583 -0.0748 0
M  V30 25 Pb 1.4275 -4.7942 -0.1335 0
M  V30 26 Pd 3.9823 2.4938 -4.2403 0
M  V30 27 Pb 3.4200 3.2153 -3.8374 0
M  V30 28 Pb 4.4164 2.3456 -3.3503 0
M  V30 29 Pb 4.4646 1.7116 -4.6454 0
M  V30 30 Pb 3.5056 2.6476 -5.1027 0
M  V30 31 Pd -3.3903 0.5027 5.3834 0
M  V30 32 Pb -2.7508 -0.1848 5.7302 0
M  V30 33 Pb -4.0888 -0.2028 5.2307 0
M  V30 34 Pb -2.7157 1.2131 5.5752 0
M  V30 35 Pb -3.9806 1.2257 5.0273 0
M  V30 36 Pd -4.6621 -3.5276 1.8065 0
M  V30 37 Pb -5.0541 -3.2027 2.6686 0
M  V30 38 Pb -4.2038 -3.8068 0.9616 0
M  V30 39 Pb -5.1556 -2.8091 1.3229 0
M  V30 40 Pb -4.0830 -4.1921 2.2755 0
M  V30 41 Pd 1.8735 0.5890 5.4312 0
M  V30 42 Pb 2.4993 1.2721 5.0561 0
M  V30 43 Pb 1.2257 1.3148 5.6459 0
M  V30 44 Pb 1.2198 -0.0869 5.7783 0
M  V30 45 Pb 2.5084 -0.1464 5.1993 0
M  V30 46 Ag -4.4652 2.3676 0.3518 0
M  V30 47 Fe -5.0878 0.0913 0.5804 0
M  V30 48 Ag -5.4531 -2.2171 0.9790 0
M  V30 49 Ag -1.0602 0.8724 -6.9289 0
M  V30 50 Fe 1.0018 1.9768 -6.5693 0
M  V30 51 Ag 3.0683 2.7382 -5.7008 0
M  V30 52 Ag 3.2091 -4.2409 1.8488 0
M  V30 53 Fe 3.2149 -2.5259 3.4869 0
M  V30 54 Ag 2.9489 -0.7172 4.9981 0
M  V30 55 Ag 0.7953 -4.8256 -0.5345 0
M  V30 56 Fe -1.5353 -4.4633 -0.2562 0
M  V30 57 Ag -3.7802 -4.0156 0.3778 0
M  V30 58 Ag -2.6139 3.4227 -0.7834 0
M  V30 59 Fe -2.2734 2.1429 -2.7557 0
M  V30 60 Ag -1.9003 0.9628 -4.7833 0
M  V30 61 Ag 1.0200 -5.4300 1.6469 0
M  V30 62 Fe -1.2667 -5.1799 2.2306 0
M  V30 63 Ag -3.5593 -4.6538 2.5447 0
M  V30 64 Ba -2.2384 -0.6704 5.9868 0
M  V30 65 Ga -0.7614 -0.6472 6.0146 0
M  V30 66 Ba 0.7149 -0.5876 6.0239 0
M  V30 67 Ba 3.8222 2.9856 0.0565 0
M  V30 68 Ga 4.2689 2.6180 -1.3041 0
M  V30 69 Ba 4.7125 2.2519 -2.6661 0
M  V30 70 Ba -4.1024 3.5141 2.3667 0
M  V30 71 Ga -4.2309 2.6647 3.5673 0
M  V30 72 Ba -4.3603 1.8183 4.7699 0
M  V30 73 Ba 3.1320 3.4473 2.3332 0
M  V30 74 Ga 3.0084 2.6045 3.5397 0
M  V30 75 Ba 2.9535 1.7989 4.7766 0
M  V30 76 Ba 3.2580 -2.4581 -3.1518 0
M  V30 77 Ga 3.1765 -3.1020 -1.8280 0
M  V30 78 Ba 3.1658 -3.7088 -0.4845 0
M  V30 79 Ba 1.9845 4.3488 -0.8320 0
M  V30 80 Ga 2.4643 4.0382 -2.1910 0
M  V30 81 Ba 2.9496 3.7217 -3.5466 0
M  V30 82 Ba -4.6204 -0.7329 5.1562 0
M  V30 83 Ga -4.9643 -1.8267 4.2220 0
M  V30 84 Ba -5.3372 -2.9284 3.3083 0
M  V30 85 Ba -0.9931 -1.5187 -6.9864 0
M  V30 86 Ga 0.3171 -2.1167 -6.6845 0
M  V30 87 Ba 1.6210 -2.6272 -6.2311 0
M  V30 88 Ba -1.7020 -1.6420 -4.7231 0
M  V30 89 Ga -0.4575 -2.3350 -4.3230 0
M  V30 90 Ba 0.8612 -2.9342 -4.0201 0
M  V30 91 Ba -1.9196 4.5008 1.4557 0
M  V30 92 Ga -0.4381 4.5353 1.4290 0
M  V30 93 Ba 1.0409 4.6319 1.4455 0
M  V30 94 Ba -2.2210 1.7526 5.7303 0
M  V30 95 Ga -0.7522 1.8215 5.7684 0
M  V30 96 Ba 0.7183 1.8420 5.7925 0
M  V30 97 Ba 3.8716 -1.6929 -5.2959 0
M  V30 98 Ga 4.3467 -0.2984 -5.1437 0
M  V30 99 Ba 4.7807 1.1066 -4.9669 0
M  V30 END ATOM
M  V30 BEGIN BOND
M  V30 1 1 1 2
M  V30 2 1 1 3
M  V30 3 1 1 4
M  V30 4 1 1 5
M  V30 5 1 6 7
M  V30 6 1 6 8
M  V30 7 1 6 9
M  V30 8 1 6 10
M  V30 9 1 11 12
M  V30 10 1 11 13
M  V30 11 1 11 14
M  V30 12 1 11 15
M  V30 13 1 16 17
M  V30 14 1 16 18
M  V30 15 1 16 19
M  V30 16 1 16 20
M  V30 17 1 21 22
M  V30 18 1 21 23
M  V30 19 1 21 24
M  V30 20 1 21 25
M  V30 21 1 26 27
M  V30 22 1 26 28
M  V30 23 1 26 29
M  V30 24 1 26 30
M  V30 25 1 31 32
M  V30 26 1 31 33
M  V30 27 1 31 34
M  V30 28 1 31 35
M  V30 29 1 36 37
M  V30 30 1 36 38
M  V30 31 1 36 39
M  V30 32 1 36 40
M  V30 33 1 41 42
M  V30 34 1 41 43
M  V30 35 1 41 44
M  V30 36 1 41 45
M  V30 37 1 46 47
M  V30 38 1 47 48
M  V30 39 1 49 50
M  V30 40 1 50 51
M  V30 41 1 52 53
M  V30 42 1 53 54
M  V30 43 1 55 56
M  V30 44 1 56 57
M  V30 45 1 58 59
M  V30 46 1 59 60
M  V30 47 1 61 62
M  V30 48 1 62 63
M  V30 49 1 64 65
M  V30 50 1 65 66
M  V30 51 1 67 68
M  V30 52 1 68 69
M  V30 53 1 70 71
M  V30 54 1 71 72
M  V30 55 1 73 74
M  V30 56 1 74 75
M  V30 57 1 76 77
M  V30 58 1 77 78
M  V30 59 1 79 80
M  V30 60 1 80 81
M  V30 61 1 82 83
M  V30 62 1 83 84
M  V30 63 1 85 86
M  V30 64 1 86 87
M  V30 65 1 88 89
M  V30 66 1 89 90
M  V30 67 1 91 92
M  V30 68 1 92 93
M  V30 69 1 94 95
M  V30 70 1 95 96
M  V30 71 1 97 98
M  V30 72 1 98 99
M  V30 73 1 2 91
M  V30 74 1 3 70
M  V30 75 1 4 58
M  V30 76 1 5 46
M  V30 77 1 7 88
M  V30 78 1 8 85
M  V30 79 1 9 60
M  V30 80 1 10 49
M  V30 81 1 12 76
M  V30 82 1 13 87
M  V30 83 1 14 97
M  V30 84 1 15 90
M  V30 85 1 17 67
M  V30 86 1 18 73
M  V30 87 1 19 79
M  V30 88 1 20 93
M  V30 89 1 22 61
M  V30 90 1 23 52
M  V30 91 1 24 78
M  V30 92 1 25 55
M  V30 93 1 27 81
M  V30 94 1 28 69
M  V30 95 1 29 99
M  V30 96 1 30 51
M  V30 97 1 32 64
M  V30 98 1 33 82
M  V30 99 1 34 94
M  V30 100 1 35 72
M  V30 101 1 37 84
M  V30 102 1 38 57
M  V30 103 1 39 48
M  V30 104 1 40 63
M  V30 105 1 42 75
M  V30 106 1 43 96
M  V30 107 1 44 66
M  V30 108 1 45 54
M  V30 END BOND
M  V30 END CTAB
M  END

$$$$
