
     RDKit          3D

  0  0  0  0  0  0  0  0  0  0999 V3000
M  V30 BEGIN CTAB
M  V30 COUNTS 99 108 0 0 0
M  V30 BEGIN ATOM
M  V30 1 Pd 3.6423 1.1531 -1.9773 0
M  V30 2 Pb 3.8705 0.3653 -2.5439 0
M  V30 3 Pb 3.4195 1.9525 -1.4156 0
M  V30 4 Pb 3.7925 1.7416 -2.7728 0
M  V30 5 Pb 3.4284 0.5152 -1.2353 0
M  V30 6 Pd 1.3381 3.0011 7.8421 0
M  V30 7 Pb 0.4272 2.6823 7.5852 0
M  V30 8 Pb 1.1426 3.9200 7.4853 0
M  V30 9 Pb 1.5652 2.0736 8.1489 0
M  V30 10 Pb 2.2470 3.3270 8.0947 0
M  V30 11 Pd -3.8289 -4.3792 -3.5778 0
M  V30 12 Pb -3.7524 -4.1823 -4.5607 0
M  V30 13 Pb -3.8660 -4.5639 -2.5929 0
M  V30 14 Pb -4.7428 -3.9693 -3.5407 0
M  V30 15 Pb -2.9325 -4.8147 -3.6158 0
M  V30 16 Pd -5.5377 0.5139 -2.9579 0
M  V30 17 Pb -6.1117 -0.2980 -3.0432 0
M  V30 18 Pb -5.2892 0.4374 -3.9186 0
M  V30 19 Pb -5.7362 0.5653 -1.9816 0
M  V30 20 Pb -4.8754 1.2627 -2.8906 0
M  V30 21 Pd -3.0867 -1.9592 3.8009 0
M  V30 22 Pb -2.9754 -1.2087 4.4512 0
M  V30 23 Pb -3.2235 -2.7041 3.1440 0
M  V30 24 Pb -3.7689 -1.4174 3.3128 0
M  V30 25 Pb -2.4055 -2.4967 4.3013 0
M  V30 26 Pd 0.6893 1.7403 -6.3722 0
M  V30 27 Pb -0.2113 1.4135 -6.6450 0
M  V30 28 Pb 1.0728 1.1587 -7.0892 0
M  V30 29 Pb 1.5860 2.0874 -6.0853 0
M  V30 30 Pb 0.2307 2.2528 -5.6441 0
M  V30 31 Pd 0.3795 -3.4663 -6.6377 0
M  V30 32 Pb 1.3117 -3.3814 -6.2988 0
M  V30 33 Pb 0.6103 -2.7702 -7.3223 0
M  V30 34 Pb 0.1950 -4.1521 -5.9369 0
M  V30 35 Pb -0.5868 -3.5065 -6.9047 0
M  V30 36 Pd 2.3156 -1.6288 5.2366 0
M  V30 37 Pb 1.5179 -2.2212 5.3692 0
M  V30 38 Pb 3.1287 -1.0696 5.0820 0
M  V30 39 Pb 2.2973 -1.3708 6.2059 0
M  V30 40 Pb 2.3268 -1.8295 4.2585 0
M  V30 41 Pd 4.1247 5.1865 4.6251 0
M  V30 42 Pb 3.3526 5.7401 4.9329 0
M  V30 43 Pb 3.7914 5.1824 3.6817 0
M  V30 44 Pb 4.7730 4.4672 4.4003 0
M  V30 45 Pb 4.4298 5.1281 5.5729 0
M  V30 46 Ag -0.2508 2.4280 7.3953 0
M  V30 47 Fe -1.5805 0.8956 6.1630 0
M  V30 48 Ag -2.9104 -0.6368 4.9309 0
M  V30 49 Ag 4.0122 -0.2258 -2.9777 0
M  V30 50 Fe 3.1114 -1.7991 -4.5040 0
M  V30 51 Ag 1.9809 -3.2497 -5.9984 0
M  V30 52 Ag -5.8503 0.5734 -1.2429 0
M  V30 53 Fe -5.1032 -0.1913 0.8752 0
M  V30 54 Ag -4.2760 -1.0096 2.9430 0
M  V30 55 Ag -5.0183 0.3969 -4.6112 0
M  V30 56 Fe -3.0287 0.7468 -5.8479 0
M  V30 57 Ag -0.9041 1.1849 -6.7993 0
M  V30 58 Ag -4.3198 1.7694 -2.9000 0
M  V30 59 Fe -2.2404 2.2906 -3.9284 0
M  V30 60 Ag -0.1976 2.5679 -5.1127 0
M  V30 61 Ag 3.2428 -0.0243 -0.7456 0
M  V30 62 Fe 2.8075 -0.9507 1.3982 0
M  V30 63 Ag 2.3619 -1.9280 3.5171 0
M  V30 64 Ag 3.7264 -0.6500 4.9161 0
M  V30 65 Fe 4.5988 1.5272 4.5699 0
M  V30 66 Ag 5.1340 3.8222 4.3165 0
M  V30 67 Ag 3.2599 2.5696 -1.0164 0
M  V30 68 Fe 3.3961 3.8585 0.9758 0
M  V30 69 Ag 3.5410 5.1345 2.9756 0
M  V30 70 Ag -3.8653 -4.7067 -1.8538 0
M  V30 71 Fe -3.6085 -3.9750 0.3943 0
M  V30 72 Ag -3.3536 -3.2529 2.6457 0
M  V30 73 Ba -1.9049 -2.8989 4.6920 0
M  V30 74 Ga -0.4815 -2.7713 5.0676 0
M  V30 75 Ba 0.9381 -2.6901 5.4696 0
M  V30 76 Ba -2.2636 -5.1446 -3.6636 0
M  V30 77 Ga -1.0906 -4.9167 -4.5219 0
M  V30 78 Ba 0.0605 -4.6550 -5.4001 0
M  V30 79 Ba 2.9232 3.6133 8.2359 0
M  V30 80 Ga 3.8269 4.3328 7.3259 0
M  V30 81 Ba 4.6081 5.0261 6.2910 0
M  V30 82 Ba 1.0460 4.6106 7.1959 0
M  V30 83 Ga 1.8437 5.3849 6.2200 0
M  V30 84 Ba 2.7354 6.0377 5.2371 0
M  V30 85 Ba -3.6672 -4.0397 -5.2978 0
M  V30 86 Ga -2.5060 -3.7892 -6.1836 0
M  V30 87 Ba -1.3265 -3.5415 -7.0456 0
M  V30 88 Ba -5.4337 -3.6742 -3.5019 0
M  V30 89 Ga -5.9840 -2.3181 -3.3140 0
M  V30 90 Ba -6.4827 -0.9426 -3.1242 0
M  V30 91 Ba 1.7382 1.3716 8.3597 0
M  V30 92 Ga 2.0081 0.1046 7.6453 0
M  V30 93 Ba 2.2777 -1.1616 6.9292 0
M  V30 94 Ba 3.8791 2.1419 -3.4024 0
M  V30 95 Ga 3.0691 2.2651 -4.6330 0
M  V30 96 Ba 2.2441 2.3732 -5.8550 0
M  V30 97 Ba 1.2633 0.6748 -7.6302 0
M  V30 98 Ga 1.0748 -0.7874 -7.7401 0
M  V30 99 Ba 0.8638 -2.2492 -7.8043 0
M  V30 END ATOM
M  V30 BEGIN BOND
M  V30 1 1 1 2
M  V30 2 1 1 3
M  V30 3 1 1 4
M  V30 4 1 1 5
M  V30 5 1 6 7
M  V30 6 1 6 8
M  V30 7 1 6 9
M  V30 8 1 6 10
M  V30 9 1 11 12
M  V30 10 1 11 13
M  V30 11 1 11 14
M  V30 12 1 11 15
M  V30 13 1 16 17
M  V30 14 1 16 18
M  V30 15 1 16 19
M  V30 16 1 16 20
M  V30 17 1 21 22
M  V30 18 1 21 23
M  V30 19 1 21 24
M  V30 20 1 21 25
M  V30 21 1 26 27
M  V30 22 1 26 28
M  V30 23 1 26 29
M  V30 24 1 26 30
M  V30 25 1 31 32
M  V30 26 1 31 33
M  V30 27 1 31 34
M  V30 28 1 31 35
M  V30 29 1 36 37
M  V30 30 1 36 38
M  V30 31 1 36 39
M  V30 32 1 36 40
M  V30 33 1 41 42
M  V30 34 1 41 43
M  V30 35 1 41 44
M  V30 36 1 41 45
M  V30 37 1 46 47
M  V30 38 1 47 48
M  V30 39 1 49 50
M  V30 40 1 50 51
M  V30 41 1 52 53
M  V30 42 1 53 54
M  V30 43 1 55 56
M  V30 44 1 56 57
M  V30 45 1 58 59
M  V30 46 1 59 60
M  V30 47 1 61 62
M  V30 48 1 62 63
M  V30 49 1 64 65
M  V30 50 1 65 66
M  V30 51 1 67 68
M  V30 52 1 68 69
M  V30 53 1 70 71
M  V30 54 1 71 72
M  V30 55 1 73 74
M  V30 56 1 74 75
M  V30 57 1 76 77
M  V30 58 1 77 78
M  V30 59 1 79 80
M  V30 60 1 80 81
M  V30 61 1 82 83
M  V30 62 1 83 84
M  V30 63 1 85 86
M  V30 64 1 86 87
M  V30 65 1 88 89
M  V30 66 1 89 90
M  V30 67 1 91 92
M  V30 68 1 92 93
M  V30 69 1 94 95
M  V30 70 1 95 96
M  V30 71 1 97 98
M  V30 72 1 98 99
M  V30 73 1 2 49
M  V30 74 1 3 67
M  V30 75 1 4 94
M  V30 76 1 5 61
M  V30 77 1 7 46
M  V30 78 1 8 82
M  V30 79 1 9 91
M  V30 80 1 10 79
M  V30 81 1 12 85
M  V30 82 1 13 70
M  V30 83 1 14 88
M  V30 84 1 15 76
M  V30 85 1 17 90
M  V30 86 1 18 55
M  V30 87 1 19 52
M  V30 88 1 20 58
M  V30 89 1 22 48
M  V30 90 1 23 72
M  V30 91 1 24 54
M  V30 92 1 25 73
M  V30 93 1 27 57
M  V30 94 1 28 97
M  V30 95 1 29 96
M  V30 96 1 30 60
M  V30 97 1 32 51
M  V30 98 1 33 99
M  V30 99 1 34 78
M  V30 100 1 35 87
M  V30 101 1 37 75
M  V30 102 1 38 64
M  V30 103 1 39 93
M  V30 104 1 40 63
M  V30 105 1 42 84
M  V30 106 1 43 69
M  V30 107 1 44 66
M  V30 108 1 45 81
M  V30 END BOND
M  V30 END CTAB
M  END

$$$$
