
     RDKit          3D

  0  0  0  0  0  0  0  0  0  0999 V3000
M  V30 BEGIN CTAB
M  V30 COUNTS 99 108 0 0 0
M  V30 BEGIN ATOM
M  V30 1 Pd -2.5670 2.5088 3.4042 0
M  V30 2 Pb -2.4478 3.4806 3.1814 0
M  V30 3 Pb -2.7427 1.5985 3.7833 0
M  V30 4 Pb -3.4736 2.4411 2.9800 0
M  V30 5 Pb -1.6511 2.5249 3.8003 0
M  V30 6 Pd 2.0873 -6.8073 0.6942 0
M  V30 7 Pb 2.2205 -6.4972 -0.2460 0
M  V30 8 Pb 1.0972 -6.6761 0.6263 0
M  V30 9 Pb 3.0500 -6.7453 0.9411 0
M  V30 10 Pb 1.9518 -7.0714 1.6404 0
M  V30 11 Pd 3.2298 3.5134 -4.5894 0
M  V30 12 Pb 2.6532 4.3115 -4.7418 0
M  V30 13 Pb 3.7711 2.6901 -4.4154 0
M  V30 14 Pb 2.9003 3.1114 -5.4393 0
M  V30 15 Pb 3.4430 3.9046 -3.6914 0
M  V30 16 Pd -2.0747 -0.9204 -5.1077 0
M  V30 17 Pb -1.5728 -0.4937 -5.8557 0
M  V30 18 Pb -2.5545 -1.2951 -4.3064 0
M  V30 19 Pb -1.3223 -1.5835 -5.0768 0
M  V30 20 Pb -2.8041 -0.2475 -5.2008 0
M  V30 21 Pd 3.1145 -2.1922 -2.9009 0
M  V30 22 Pb 2.8801 -3.1339 -2.6465 0
M  V30 23 Pb 3.4980 -1.3314 -3.2516 0
M  V30 24 Pb 2.5022 -2.3445 -3.6799 0
M  V30 25 Pb 3.6770 -2.0390 -2.0873 0
M  V30 26 Pd -5.2232 1.5044 -1.5849 0
M  V30 27 Pb -4.9304 0.5429 -1.6376 0
M  V30 28 Pb -5.4503 2.4750 -1.5509 0
M  V30 29 Pb -5.3326 1.4990 -0.5868 0
M  V30 30 Pb -5.1487 1.5572 -2.5774 0
M  V30 31 Pd -1.1076 6.9350 -0.1398 0
M  V30 32 Pb -1.3258 6.7071 0.8087 0
M  V30 33 Pb -2.0840 7.0031 -0.3251 0
M  V30 34 Pb -0.1312 6.7428 -0.0206 0
M  V30 35 Pb -0.9022 7.1150 -1.0979 0
M  V30 36 Pd 3.7208 -1.5580 4.7654 0
M  V30 37 Pb 4.1623 -1.3687 3.8886 0
M  V30 38 Pb 3.2208 -1.7458 5.6162 0
M  V30 39 Pb 4.1190 -2.4712 4.6620 0
M  V30 40 Pb 3.3295 -0.6414 4.8123 0
M  V30 41 Pd -1.1549 -2.9884 5.4256 0
M  V30 42 Pb -1.5760 -3.4425 4.6352 0
M  V30 43 Pb -1.7616 -2.2012 5.3082 0
M  V30 44 Pb -0.6006 -2.5692 6.1454 0
M  V30 45 Pb -0.6203 -3.8138 5.5565 0
M  V30 46 Ag 4.0882 -1.8561 -1.4859 0
M  V30 47 Fe 4.3046 -1.5708 0.8627 0
M  V30 48 Ag 4.4866 -1.2994 3.2158 0
M  V30 49 Ag 3.4866 4.2358 -3.0167 0
M  V30 50 Fe 2.1661 5.4076 -1.4224 0
M  V30 51 Ag 0.5928 6.5381 -0.0423 0
M  V30 52 Ag 1.8424 -7.1611 2.3670 0
M  V30 53 Fe 0.8558 -5.9810 4.1589 0
M  V30 54 Ag -0.2500 -4.4553 5.5826 0
M  V30 55 Ag 0.3800 -6.4737 0.7290 0
M  V30 56 Fe -0.8776 -5.1797 2.2805 0
M  V30 57 Ag -1.7792 -3.8252 4.0173 0
M  V30 58 Ag 2.1967 4.9005 -4.7716 0
M  V30 59 Fe 0.7058 6.1610 -3.4294 0
M  V30 60 Ag -0.6932 7.1791 -1.8109 0
M  V30 61 Ag 2.5545 2.7804 -6.0109 0
M  V30 62 Fe 0.7364 1.3128 -6.4022 0
M  V30 63 Ag -1.1224 -0.1548 -6.3445 0
M  V30 64 Ag 3.6692 -6.5923 1.3303 0
M  V30 65 Fe 4.2614 -4.9317 2.9220 0
M  V30 66 Ag 4.4481 -3.1081 4.4334 0
M  V30 67 Ag -0.9522 2.5279 4.0671 0
M  V30 68 Fe 1.0471 1.3207 4.4840 0
M  V30 69 Ag 3.0004 0.0282 4.8614 0
M  V30 70 Ag -5.5417 3.2142 -1.4946 0
M  V30 71 Fe -4.3448 5.2023 -1.0140 0
M  V30 72 Ag -2.8077 6.9274 -0.4878 0
M  V30 73 Ba 2.2832 -6.2756 -0.9587 0
M  V30 74 Ga 2.5199 -5.0256 -1.7095 0
M  V30 75 Ba 2.7402 -3.8737 -2.6069 0
M  V30 76 Ba -2.3417 4.2272 3.1516 0
M  V30 77 Ga -1.9273 5.3425 2.2752 0
M  V30 78 Ba -1.5343 6.5446 1.5102 0
M  V30 79 Ba -0.7322 -2.0430 -5.1741 0
M  V30 80 Ga 0.6365 -2.2609 -4.6552 0
M  V30 81 Ba 2.0164 -2.5619 -4.2128 0
M  V30 82 Ba -2.9317 -1.5282 -3.6931 0
M  V30 83 Ga -3.8102 -0.8568 -2.7020 0
M  V30 84 Ba -4.6863 -0.1688 -1.7201 0
M  V30 85 Ba -3.3505 0.2564 -5.2715 0
M  V30 86 Ga -4.2308 0.9368 -4.3106 0
M  V30 87 Ba -5.0937 1.5979 -3.3209 0
M  V30 88 Ba -4.1585 2.2968 2.7000 0
M  V30 89 Ga -4.7743 1.9433 1.4009 0
M  V30 90 Ba -5.4775 1.5823 0.1490 0
M  V30 91 Ba 2.7932 -1.7919 6.2372 0
M  V30 92 Ga 1.3565 -2.0605 6.4768 0
M  V30 93 Ba -0.0872 -2.3439 6.6463 0
M  V30 94 Ba -2.9744 0.9722 4.1285 0
M  V30 95 Ga -2.5352 -0.3417 4.6394 0
M  V30 96 Ba -2.2944 -1.6808 5.2133 0
M  V30 97 Ba 4.1788 2.0689 -4.3104 0
M  V30 98 Ga 3.9648 0.6673 -3.8875 0
M  V30 99 Ba 3.9275 -0.7571 -3.4912 0
M  V30 END ATOM
M  V30 BEGIN BOND
M  V30 1 1 1 2
M  V30 2 1 1 3
M  V30 3 1 1 4
M  V30 4 1 1 5
M  V30 5 1 6 7
M  V30 6 1 6 8
M  V30 7 1 6 9
M  V30 8 1 6 10
M  V30 9 1 11 12
M  V30 10 1 11 13
M  V30 11 1 11 14
M  V30 12 1 11 15
M  V30 13 1 16 17
M  V30 14 1 16 18
M  V30 15 1 16 19
M  V30 16 1 16 20
M  V30 17 1 21 22
M  V30 18 1 21 23
M  V30 19 1 21 24
M  V30 20 1 21 25
M  V30 21 1 26 27
M  V30 22 1 26 28
M  V30 23 1 26 29
M  V30 24 1 26 30
M  V30 25 1 31 32
M  V30 26 1 31 33
M  V30 27 1 31 34
M  V30 28 1 31 35
M  V30 29 1 36 37
M  V30 30 1 36 38
M  V30 31 1 36 39
M  V30 32 1 36 40
M  V30 33 1 41 42
M  V30 34 1 41 43
M  V30 35 1 41 44
M  V30 36 1 41 45
M  V30 37 1 46 47
M  V30 38 1 47 48
M  V30 39 1 49 50
M  V30 40 1 50 51
M  V30 41 1 52 53
M  V30 42 1 53 54
M  V30 43 1 55 56
M  V30 44 1 56 57
M  V30 45 1 58 59
M  V30 46 1 59 60
M  V30 47 1 61 62
M  V30 48 1 62 63
M  V30 49 1 64 65
M  V30 50 1 65 66
M  V30 51 1 67 68
M  V30 52 1 68 69
M  V30 53 1 70 71
M  V30 54 1 71 72
M  V30 55 1 73 74
M  V30 56 1 74 75
M  V30 57 1 76 77
M  V30 58 1 77 78
M  V30 59 1 79 80
M  V30 60 1 80 81
M  V30 61 1 82 83
M  V30 62 1 83 84
M  V30 63 1 85 86
M  V30 64 1 86 87
M  V30 65 1 88 89
M  V30 66 1 89 90
M  V30 67 1 91 92
M  V30 68 1 92 93
M  V30 69 1 94 95
M  V30 70 1 95 96
M  V30 71 1 97 98
M  V30 72 1 98 99
M  V30 73 1 2 76
M  V30 74 1 3 94
M  V30 75 1 4 88
M  V30 76 1 5 67
M  V30 77 1 7 73
M  V30 78 1 8 55
M  V30 79 1 9 64
M  V30 80 1 10 52
M  V30 81 1 12 58
M  V30 82 1 13 97
M  V30 83 1 14 61
M  V30 84 1 15 49
M  V30 85 1 17 63
M  V30 86 1 18 82
M  V30 87 1 19 79
M  V30 88 1 20 85
M  V30 89 1 22 75
M  V30 90 1 23 99
M  V30 91 1 24 81
M  V30 92 1 25 46
M  V30 93 1 27 84
M  V30 94 1 28 70
M  V30 95 1 29 90
M  V30 96 1 30 87
M  V30 97 1 32 78
M  V30 98 1 33 72
M  V30 99 1 34 51
M  V30 100 1 35 60
M  V30 101 1 37 48
M  V30 102 1 38 91
M  V30 103 1 39 66
M  V30 104 1 40 69
M  V30 105 1 42 57
M  V30 106 1 43 96
M  V30 107 1 44 93
M  V30 108 1 45 54
M  V30 END BOND
M  V30 END CTAB
M  END

$$$$
