
     RDKit          3D

  0  0  0  0  0  0  0  0  0  0999 V3000
M  V30 BEGIN CTAB
M  V30 COUNTS 99 108 0 0 0
M  V30 BEGIN ATOM
M  V30 1 Pd -1.0911 -1.6858 -3.3201 0
M  V30 2 Pb -1.6893 -1.4870 -4.0962 0
M  V30 3 Pb -0.5877 -1.8123 -2.4646 0
M  V30 4 Pb -1.8505 -2.1761 -2.9009 0
M  V30 5 Pb -0.3425 -1.1669 -3.7449 0
M  V30 6 Pd 4.6507 -5.7534 2.1718 0
M  V30 7 Pb 5.0038 -4.8952 2.5491 0
M  V30 8 Pb 4.2636 -6.5988 1.7975 0
M  V30 9 Pb 5.2856 -5.6803 1.4030 0
M  V30 10 Pb 3.9186 -5.7582 2.8509 0
M  V30 11 Pd -0.2255 7.0110 -0.5251 0
M  V30 12 Pb -0.1697 6.5315 -1.4011 0
M  V30 13 Pb 0.7577 6.9283 -0.3735 0
M  V30 14 Pb -0.3167 7.3909 0.3925 0
M  V30 15 Pb -1.2184 6.9850 -0.6276 0
M  V30 16 Pd -1.9426 3.6668 5.4526 0
M  V30 17 Pb -1.6901 4.6215 5.3117 0
M  V30 18 Pb -2.8741 3.8600 5.1394 0
M  V30 19 Pb -0.9894 3.4514 5.6753 0
M  V30 20 Pb -2.2159 2.7069 5.4951 0
M  V30 21 Pd 4.8653 2.0856 2.3191 0
M  V30 22 Pb 5.1219 1.1781 2.6586 0
M  V30 23 Pb 4.6439 2.9968 1.9696 0
M  V30 24 Pb 4.3549 2.2591 3.1653 0
M  V30 25 Pb 5.3315 1.9041 1.4529 0
M  V30 26 Pd -6.4411 0.1403 1.1302 0
M  V30 27 Pb -6.5694 1.0313 1.5660 0
M  V30 28 Pb -6.8968 0.4158 0.2802 0
M  V30 29 Pb -6.2208 -0.7291 0.6981 0
M  V30 30 Pb -5.9255 -0.1206 1.9472 0
M  V30 31 Pd -4.6348 2.1434 -3.5641 0
M  V30 32 Pb -4.4550 1.3514 -4.1540 0
M  V30 33 Pb -5.5163 1.7794 -3.2511 0
M  V30 34 Pb -4.7783 2.9623 -3.0099 0
M  V30 35 Pb -3.7553 2.5422 -3.8282 0
M  V30 36 Pd 4.3606 -1.9196 -3.9975 0
M  V30 37 Pb 4.9235 -1.1794 -3.6326 0
M  V30 38 Pb 3.7560 -2.6661 -4.2612 0
M  V30 39 Pb 5.0018 -2.5785 -3.6019 0
M  V30 40 Pb 3.6665 -1.2724 -4.3143 0
M  V30 41 Pd 0.4335 -5.7200 0.3215 0
M  V30 42 Pb 0.7880 -6.6502 0.3736 0
M  V30 43 Pb 0.2733 -4.7337 0.2640 0
M  V30 44 Pb 0.4607 -5.7584 -0.6740 0
M  V30 45 Pb 0.4910 -5.6727 1.3194 0
M  V30 46 Ag 5.2552 -4.2483 2.8380 0
M  V30 47 Fe 5.2832 -1.8713 2.8625 0
M  V30 48 Ag 5.3364 0.5048 2.9168 0
M  V30 49 Ag 5.6408 1.7791 0.7807 0
M  V30 50 Fe 5.5492 0.6019 -1.2797 0
M  V30 51 Ag 5.3260 -0.6529 -3.2833 0
M  V30 52 Ag -0.2604 3.3052 5.7911 0
M  V30 53 Fe 1.8617 2.8365 4.8248 0
M  V30 54 Ag 3.9536 2.3715 3.7929 0
M  V30 55 Ag -3.5620 3.9407 4.8476 0
M  V30 56 Fe -5.1642 2.9229 3.4180 0
M  V30 57 Ag -6.5578 1.6733 1.9541 0
M  V30 58 Ag -1.9513 6.8631 -0.7181 0
M  V30 59 Fe -3.4992 5.3108 -1.6277 0
M  V30 60 Ag -4.8129 3.6037 -2.6244 0
M  V30 61 Ag -0.2134 6.1139 -2.0230 0
M  V30 62 Fe -1.5727 4.4936 -3.1056 0
M  V30 63 Ag -3.1062 2.8949 -3.9647 0
M  V30 64 Ag -2.4977 2.0157 5.4331 0
M  V30 65 Fe -3.9815 0.7491 4.0792 0
M  V30 66 Ag -5.5047 -0.2494 2.5552 0
M  V30 67 Ag -0.3960 7.5759 1.1118 0
M  V30 68 Fe -0.9314 6.6110 3.2102 0
M  V30 69 Ag -1.5055 5.3176 5.1124 0
M  V30 70 Ag 5.6883 -5.5667 0.7806 0
M  V30 71 Fe 5.6852 -4.3697 -1.2712 0
M  V30 72 Ag 5.4437 -3.0690 -3.2443 0
M  V30 73 Ag -2.4379 -2.4922 -2.5668 0
M  V30 74 Fe -4.2651 -2.0708 -1.1189 0
M  V30 75 Ag -5.9806 -1.3373 0.3410 0
M  V30 76 Ag 3.2640 -3.2189 -4.3508 0
M  V30 77 Fe 1.8312 -4.5868 -3.0517 0
M  V30 78 Ag 0.5624 -5.7334 -1.4125 0
M  V30 79 Ag 1.4763 6.8108 -0.2004 0
M  V30 80 Fe 3.0246 5.2688 0.7292 0
M  V30 81 Ag 4.5090 3.6730 1.6722 0
M  V30 82 Ba -2.2021 -1.3157 -4.6165 0
M  V30 83 Ga -3.2482 -0.2713 -4.6426 0
M  V30 84 Ba -4.2791 0.7883 -4.6234 0
M  V30 85 Ba 3.2971 -5.7413 3.2678 0
M  V30 86 Ga 1.9145 -5.6980 2.7584 0
M  V30 87 Ba 0.6172 -5.6595 2.0591 0
M  V30 88 Ba 3.9129 -7.2102 1.5346 0
M  V30 89 Ga 2.5561 -7.3478 0.9737 0
M  V30 90 Ba 1.1835 -7.2804 0.4401 0
M  V30 91 Ba 0.1899 -0.7542 -4.0859 0
M  V30 92 Ga 1.6533 -0.7918 -4.2976 0
M  V30 93 Ba 3.1152 -0.8071 -4.5226 0
M  V30 94 Ba -0.3051 -1.8743 -1.7712 0
M  V30 95 Ga -0.0279 -2.9527 -0.8004 0
M  V30 96 Ba 0.2683 -3.9836 0.2155 0
M  V30 97 Ba -7.2090 0.5791 -0.3858 0
M  V30 98 Ga -6.6964 1.0667 -1.6861 0
M  V30 99 Ba -6.1857 1.5539 -2.9874 0
M  V30 END ATOM
M  V30 BEGIN BOND
M  V30 1 1 1 2
M  V30 2 1 1 3
M  V30 3 1 1 4
M  V30 4 1 1 5
M  V30 5 1 6 7
M  V30 6 1 6 8
M  V30 7 1 6 9
M  V30 8 1 6 10
M  V30 9 1 11 12
M  V30 10 1 11 13
M  V30 11 1 11 14
M  V30 12 1 11 15
M  V30 13 1 16 17
M  V30 14 1 16 18
M  V30 15 1 16 19
M  V30 16 1 16 20
M  V30 17 1 21 22
M  V30 18 1 21 23
M  V30 19 1 21 24
M  V30 20 1 21 25
M  V30 21 1 26 27
M  V30 22 1 26 28
M  V30 23 1 26 29
M  V30 24 1 26 30
M  V30 25 1 31 32
M  V30 26 1 31 33
M  V30 27 1 31 34
M  V30 28 1 31 35
M  V30 29 1 36 37
M  V30 30 1 36 38
M  V30 31 1 36 39
M  V30 32 1 36 40
M  V30 33 1 41 42
M  V30 34 1 41 43
M  V30 35 1 41 44
M  V30 36 1 41 45
M  V30 37 1 46 47
M  V30 38 1 47 48
M  V30 39 1 49 50
M  V30 40 1 50 51
M  V30 41 1 52 53
M  V30 42 1 53 54
M  V30 43 1 55 56
M  V30 44 1 56 57
M  V30 45 1 58 59
M  V30 46 1 59 60
M  V30 47 1 61 62
M  V30 48 1 62 63
M  V30 49 1 64 65
M  V30 50 1 65 66
M  V30 51 1 67 68
M  V30 52 1 68 69
M  V30 53 1 70 71
M  V30 54 1 71 72
M  V30 55 1 73 74
M  V30 56 1 74 75
M  V30 57 1 76 77
M  V30 58 1 77 78
M  V30 59 1 79 80
M  V30 60 1 80 81
M  V30 61 1 82 83
M  V30 62 1 83 84
M  V30 63 1 85 86
M  V30 64 1 86 87
M  V30 65 1 88 89
M  V30 66 1 89 90
M  V30 67 1 91 92
M  V30 68 1 92 93
M  V30 69 1 94 95
M  V30 70 1 95 96
M  V30 71 1 97 98
M  V30 72 1 98 99
M  V30 73 1 2 82
M  V30 74 1 3 94
M  V30 75 1 4 73
M  V30 76 1 5 91
M  V30 77 1 7 46
M  V30 78 1 8 88
M  V30 79 1 9 70
M  V30 80 1 10 85
M  V30 81 1 12 61
M  V30 82 1 13 79
M  V30 83 1 14 67
M  V30 84 1 15 58
M  V30 85 1 17 69
M  V30 86 1 18 55
M  V30 87 1 19 52
M  V30 88 1 20 64
M  V30 89 1 22 48
M  V30 90 1 23 81
M  V30 91 1 24 54
M  V30 92 1 25 49
M  V30 93 1 27 57
M  V30 94 1 28 97
M  V30 95 1 29 75
M  V30 96 1 30 66
M  V30 97 1 32 84
M  V30 98 1 33 99
M  V30 99 1 34 60
M  V30 100 1 35 63
M  V30 101 1 37 51
M  V30 102 1 38 76
M  V30 103 1 39 72
M  V30 104 1 40 93
M  V30 105 1 42 90
M  V30 106 1 43 96
M  V30 107 1 44 78
M  V30 108 1 45 87
M  V30 END BOND
M  V30 END CTAB
M  END

$$$$
