
     RDKit          3D

  0  0  0  0  0  0  0  0  0  0999 V3000
M  V30 BEGIN CTAB
M  V30 COUNTS 99 108 0 0 0
M  V30 BEGIN ATOM
M  V30 1 Pd -4.3947 -2.3122 2.4784 0
M  V30 2 Pb -4.7248 -2.3944 1.5375 0
M  V30 3 Pb -4.1055 -2.2899 3.4396 0
M  V30 4 Pb -4.8904 -1.4511 2.6104 0
M  V30 5 Pb -3.8912 -3.1609 2.3195 0
M  V30 6 Pd 2.2425 1.7746 3.4962 0
M  V30 7 Pb 1.7784 1.8120 2.6129 0
M  V30 8 Pb 2.6568 1.6218 4.3884 0
M  V30 9 Pb 3.0107 1.3127 3.0565 0
M  V30 10 Pb 1.4324 2.1356 3.9633 0
M  V30 11 Pd 2.3762 -0.3028 -6.2258 0
M  V30 12 Pb 2.2265 -1.2755 -6.3601 0
M  V30 13 Pb 3.3045 -0.4896 -5.9001 0
M  V30 14 Pb 2.5426 0.6727 -6.0787 0
M  V30 15 Pb 1.4003 -0.1294 -6.4696 0
M  V30 16 Pd 2.1813 4.9894 -1.0129 0
M  V30 17 Pb 2.5196 4.9441 -1.9509 0
M  V30 18 Pb 1.7435 4.9218 -0.1102 0
M  V30 19 Pb 3.0174 4.5405 -0.7028 0
M  V30 20 Pb 1.3313 5.3836 -1.3413 0
M  V30 21 Pd 3.4430 -0.0217 -1.5577 0
M  V30 22 Pb 2.6623 0.3196 -1.0314 0
M  V30 23 Pb 4.1741 -0.2912 -2.1834 0
M  V30 24 Pb 3.9744 0.7577 -1.2244 0
M  V30 25 Pb 2.9360 -0.8326 -1.8577 0
M  V30 26 Pd -4.4591 3.0904 0.6594 0
M  V30 27 Pb -3.7391 3.3459 1.3105 0
M  V30 28 Pb -5.0386 2.8089 -0.1021 0
M  V30 29 Pb -4.8925 2.4440 1.2935 0
M  V30 30 Pb -4.0589 3.7574 0.0405 0
M  V30 31 Pd -3.3641 -1.4378 -5.0456 0
M  V30 32 Pb -3.9573 -1.9178 -4.4024 0
M  V30 33 Pb -3.8882 -0.6257 -4.7897 0
M  V30 34 Pb -2.7024 -0.9243 -5.6279 0
M  V30 35 Pb -2.8933 -2.2801 -5.2810 0
M  V30 36 Pd 2.3344 -4.6344 0.8064 0
M  V30 37 Pb 2.2070 -4.3549 -0.1460 0
M  V30 38 Pb 2.3828 -4.8234 1.7871 0
M  V30 39 Pb 3.1286 -4.0338 0.8669 0
M  V30 40 Pb 1.4627 -5.1178 0.8058 0
M  V30 41 Pd -0.2431 -1.0463 6.4263 0
M  V30 42 Pb 0.6633 -0.6811 6.6390 0
M  V30 43 Pb -1.1634 -1.4067 6.2528 0
M  V30 44 Pb 0.1489 -1.9645 6.3820 0
M  V30 45 Pb -0.5656 -0.1040 6.3334 0
M  V30 46 Ag -4.9648 -2.5298 0.8390 0
M  V30 47 Fe -4.7095 -2.3872 -1.5176 0
M  V30 48 Ag -4.3926 -2.2010 -3.8637 0
M  V30 49 Ag 1.3181 4.8338 0.5088 0
M  V30 50 Fe -0.8633 4.2167 1.2422 0
M  V30 51 Ag -3.1123 3.5594 1.6735 0
M  V30 52 Ag 1.9801 -1.9704 -6.4155 0
M  V30 53 Fe -0.1567 -2.8849 -6.0415 0
M  V30 54 Ag -2.4416 -2.8326 -5.4760 0
M  V30 55 Ag 0.6493 5.6012 -1.5368 0
M  V30 56 Fe -1.6098 5.0630 -1.0896 0
M  V30 57 Ag -3.7225 4.2529 -0.4004 0
M  V30 58 Ag 2.6989 1.3934 -5.9399 0
M  V30 59 Fe 2.7441 3.1717 -4.3672 0
M  V30 60 Ag 2.7117 4.8261 -2.6645 0
M  V30 61 Ag 3.5271 0.8801 2.7314 0
M  V30 62 Fe 3.7899 -1.2821 1.7931 0
M  V30 63 Ag 3.6380 -3.4935 0.9500 0
M  V30 64 Ag -3.5066 -3.7780 2.1380 0
M  V30 65 Fe -1.4158 -4.7016 1.5005 0
M  V30 66 Ag 0.7717 -5.3885 0.8899 0
M  V30 67 Ag 2.3280 -4.9095 2.5301 0
M  V30 68 Fe 1.4615 -3.8836 4.4885 0
M  V30 69 Ag 0.4977 -2.6144 6.2489 0
M  V30 70 Ag -5.3386 2.6191 -0.7608 0
M  V30 71 Fe -4.9390 1.2941 -2.6904 0
M  V30 72 Ag -4.3525 -0.1009 -4.5206 0
M  V30 73 Ba 1.4195 1.7690 1.9570 0
M  V30 74 Ga 1.7571 1.2024 0.6368 0
M  V30 75 Ba 2.0739 0.6396 -0.6900 0
M  V30 76 Ba 2.6015 -1.4654 -2.0901 0
M  V30 77 Ga 2.3358 -2.7836 -1.4775 0
M  V30 78 Ba 2.0825 -4.0914 -0.8381 0
M  V30 79 Ba 3.6416 4.1692 -0.5221 0
M  V30 80 Ga 4.0263 2.7595 -0.7176 0
M  V30 81 Ba 4.3539 1.3394 -0.9400 0
M  V30 82 Ba 0.6705 0.0190 -6.6663 0
M  V30 83 Ga -0.7489 -0.3085 -6.3113 0
M  V30 84 Ba -2.2122 -0.5358 -6.0767 0
M  V30 85 Ba 0.8200 2.3348 4.3530 0
M  V30 86 Ga -0.0027 1.5361 5.2855 0
M  V30 87 Ba -0.7252 0.6150 6.1876 0
M  V30 88 Ba 2.8889 1.4251 5.0686 0
M  V30 89 Ga 2.1740 0.5303 5.9910 0
M  V30 90 Ba 1.3324 -0.3763 6.7869 0
M  V30 91 Ba -5.2641 -0.8086 2.7269 0
M  V30 92 Ga -5.2261 0.5821 2.2249 0
M  V30 93 Ba -5.2533 1.9909 1.7758 0
M  V30 94 Ba -3.9460 -2.3034 4.1762 0
M  V30 95 Ga -2.8607 -1.9691 5.1241 0
M  V30 96 Ba -1.8610 -1.6802 6.1756 0
M  V30 97 Ba 3.9764 -0.6232 -5.5913 0
M  V30 98 Ga 4.3910 -0.5715 -4.1759 0
M  V30 99 Ba 4.6553 -0.4775 -2.7271 0
M  V30 END ATOM
M  V30 BEGIN BOND
M  V30 1 1 1 2
M  V30 2 1 1 3
M  V30 3 1 1 4
M  V30 4 1 1 5
M  V30 5 1 6 7
M  V30 6 1 6 8
M  V30 7 1 6 9
M  V30 8 1 6 10
M  V30 9 1 11 12
M  V30 10 1 11 13
M  V30 11 1 11 14
M  V30 12 1 11 15
M  V30 13 1 16 17
M  V30 14 1 16 18
M  V30 15 1 16 19
M  V30 16 1 16 20
M  V30 17 1 21 22
M  V30 18 1 21 23
M  V30 19 1 21 24
M  V30 20 1 21 25
M  V30 21 1 26 27
M  V30 22 1 26 28
M  V30 23 1 26 29
M  V30 24 1 26 30
M  V30 25 1 31 32
M  V30 26 1 31 33
M  V30 27 1 31 34
M  V30 28 1 31 35
M  V30 29 1 36 37
M  V30 30 1 36 38
M  V30 31 1 36 39
M  V30 32 1 36 40
M  V30 33 1 41 42
M  V30 34 1 41 43
M  V30 35 1 41 44
M  V30 36 1 41 45
M  V30 37 1 46 47
M  V30 38 1 47 48
M  V30 39 1 49 50
M  V30 40 1 50 51
M  V30 41 1 52 53
M  V30 42 1 53 54
M  V30 43 1 55 56
M  V30 44 1 56 57
M  V30 45 1 58 59
M  V30 46 1 59 60
M  V30 47 1 61 62
M  V30 48 1 62 63
M  V30 49 1 64 65
M  V30 50 1 65 66
M  V30 51 1 67 68
M  V30 52 1 68 69
M  V30 53 1 70 71
M  V30 54 1 71 72
M  V30 55 1 73 74
M  V30 56 1 74 75
M  V30 57 1 76 77
M  V30 58 1 77 78
M  V30 59 1 79 80
M  V30 60 1 80 81
M  V30 61 1 82 83
M  V30 62 1 83 84
M  V30 63 1 85 86
M  V30 64 1 86 87
M  V30 65 1 88 89
M  V30 66 1 89 90
M  V30 67 1 91 92
M  V30 68 1 92 93
M  V30 69 1 94 95
M  V30 70 1 95 96
M  V30 71 1 97 98
M  V30 72 1 98 99
M  V30 73 1 2 46
M  V30 74 1 3 94
M  V30 75 1 4 91
M  V30 76 1 5 64
M  V30 77 1 7 73
M  V30 78 1 8 88
M  V30 79 1 9 61
M  V30 80 1 10 85
M  V30 81 1 12 52
M  V30 82 1 13 97
M  V30 83 1 14 58
M  V30 84 1 15 82
M  V30 85 1 17 60
M  V30 86 1 18 49
M  V30 87 1 19 79
M  V30 88 1 20 55
M  V30 89 1 22 75
M  V30 90 1 23 99
M  V30 91 1 24 81
M  V30 92 1 25 76
M  V30 93 1 27 51
M  V30 94 1 28 70
M  V30 95 1 29 93
M  V30 96 1 30 57
M  V30 97 1 32 48
M  V30 98 1 33 72
M  V30 99 1 34 84
M  V30 100 1 35 54
M  V30 101 1 37 78
M  V30 102 1 38 67
M  V30 103 1 39 63
M  V30 104 1 40 66
M  V30 105 1 42 90
M  V30 106 1 43 96
M  V30 107 1 44 69
M  V30 108 1 45 87
M  V30 END BOND
M  V30 END CTAB
M  END

$$$$
