
     RDKit          3D

  0  0  0  0  0  0  0  0  0  0999 V3000
M  V30 BEGIN CTAB
M  V30 COUNTS 99 108 0 0 0
M  V30 BEGIN ATOM
M  V30 1 Pd 1.0218 -6.4431 -0.8732 0
M  V30 2 Pb 1.1411 -6.3518 0.1175 0
M  V30 3 Pb 0.8575 -6.5194 -1.8562 0
M  V30 4 Pb 0.5700 -7.3290 -0.7562 0
M  V30 5 Pb 1.4507 -5.5517 -1.0228 0
M  V30 6 Pd -3.3596 -7.6323 -2.8537 0
M  V30 7 Pb -3.8674 -6.8742 -3.2632 0
M  V30 8 Pb -2.8147 -8.3069 -2.3568 0
M  V30 9 Pb -2.5557 -7.4267 -3.4097 0
M  V30 10 Pb -4.1430 -7.8027 -2.2589 0
M  V30 11 Pd -1.3406 3.1658 2.0107 0
M  V30 12 Pb -0.9401 2.8838 2.8832 0
M  V30 13 Pb -1.6325 3.4717 1.1016 0
M  V30 14 Pb -1.2969 4.1131 2.3316 0
M  V30 15 Pb -1.5254 2.2195 1.7294 0
M  V30 16 Pd 1.5499 8.0310 1.9675 0
M  V30 17 Pb 1.1151 8.1091 1.0661 0
M  V30 18 Pb 2.0615 7.8257 2.8013 0
M  V30 19 Pb 2.3831 8.3655 1.5413 0
M  V30 20 Pb 0.7131 7.6671 2.3702 0
M  V30 21 Pd -0.6861 -2.7584 2.3442 0
M  V30 22 Pb 0.1656 -2.3465 2.0340 0
M  V30 23 Pb -1.5361 -3.1587 2.6902 0
M  V30 24 Pb -1.1836 -1.9569 2.0043 0
M  V30 25 Pb -0.1810 -3.5840 2.5961 0
M  V30 26 Pd -5.0913 -4.1209 0.0006 0
M  V30 27 Pb -5.2022 -4.0789 -0.9936 0
M  V30 28 Pb -4.6301 -3.2346 0.0361 0
M  V30 29 Pb -5.5074 -5.0286 -0.0188 0
M  V30 30 Pb -4.9163 -4.1983 0.9793 0
M  V30 31 Pd 3.6619 3.4129 3.1478 0
M  V30 32 Pb 3.5676 2.5148 2.7268 0
M  V30 33 Pb 4.4049 3.5705 2.4932 0
M  V30 34 Pb 2.8885 3.1967 3.7492 0
M  V30 35 Pb 3.7376 4.3205 3.5703 0
M  V30 36 Pd 0.2387 1.1834 -2.2347 0
M  V30 37 Pb 0.8483 1.5225 -2.9556 0
M  V30 38 Pb -0.3211 2.0121 -2.2414 0
M  V30 39 Pb 0.8021 0.3598 -2.1560 0
M  V30 40 Pb -0.4117 0.8240 -1.5670 0
M  V30 41 Pd 4.0102 5.2031 -3.6172 0
M  V30 42 Pb 4.4057 6.0127 -3.1971 0
M  V30 43 Pb 3.1727 5.7336 -3.7484 0
M  V30 44 Pb 4.7655 4.6963 -3.2093 0
M  V30 45 Pb 3.5945 4.3807 -4.0071 0
M  V30 46 Ag 4.9120 3.5838 1.9363 0
M  V30 47 Fe 5.2600 3.9436 -0.3874 0
M  V30 48 Ag 5.2543 4.4168 -2.7163 0
M  V30 49 Ag 2.9769 8.5420 1.1319 0
M  V30 50 Fe 4.0210 7.7634 -0.8407 0
M  V30 51 Ag 4.6388 6.5969 -2.8018 0
M  V30 52 Ag 1.7590 -4.8829 -1.1675 0
M  V30 53 Fe 1.4960 -2.5646 -1.6163 0
M  V30 54 Ag 1.2367 -0.2461 -2.0658 0
M  V30 55 Ag -4.2547 -2.5922 0.1299 0
M  V30 56 Fe -2.5942 -1.0173 -0.5035 0
M  V30 57 Ag -0.9461 0.5851 -1.0993 0
M  V30 58 Ag 0.8021 -2.0135 1.8343 0
M  V30 59 Fe 2.1859 -0.1052 2.0803 0
M  V30 60 Ag 3.4898 1.8480 2.4005 0
M  V30 61 Ag 0.8926 8.0976 0.3456 0
M  V30 62 Fe 1.5475 7.2196 -1.7664 0
M  V30 63 Ag 2.5627 6.1578 -3.6374 0
M  V30 64 Ba -1.3392 4.8074 2.6164 0
M  V30 65 Ga -0.6003 6.0832 2.6197 0
M  V30 66 Ba 0.0866 7.3871 2.6666 0
M  V30 67 Ba 1.2936 1.7229 -3.5290 0
M  V30 68 Ga 2.2810 2.7638 -3.8813 0
M  V30 69 Ba 3.2773 3.7693 -4.3051 0
M  V30 70 Ba -4.7260 -7.8638 -1.7943 0
M  V30 71 Ga -5.3065 -6.8436 -0.9061 0
M  V30 72 Ba -5.7760 -5.7253 -0.0720 0
M  V30 73 Ba 0.6844 -6.5822 -2.5827 0
M  V30 74 Ga -0.5923 -6.9207 -3.2358 0
M  V30 75 Ba -1.9196 -7.2697 -3.7721 0
M  V30 76 Ba 0.2065 -7.9856 -0.7190 0
M  V30 77 Ga -1.0727 -8.4222 -1.3115 0
M  V30 78 Ba -2.3631 -8.7460 -1.9503 0
M  V30 79 Ba -2.1732 -3.4526 2.9587 0
M  V30 80 Ga -3.4591 -3.8541 2.3603 0
M  V30 81 Ba -4.7200 -4.2361 1.6994 0
M  V30 82 Ba -4.2458 -6.2665 -3.4881 0
M  V30 83 Ga -4.7801 -5.1571 -2.6736 0
M  V30 84 Ba -5.2609 -4.1176 -1.7417 0
M  V30 85 Ba -0.5786 2.7311 3.5235 0
M  V30 86 Ga 0.8514 2.8520 3.8789 0
M  V30 87 Ba 2.2945 2.9962 4.1671 0
M  V30 88 Ba -1.7732 1.5489 1.4884 0
M  V30 89 Ga -1.5989 0.0885 1.6460 0
M  V30 90 Ba -1.5583 -1.3899 1.6811 0
M  V30 91 Ba 1.2051 -6.2715 0.8624 0
M  V30 92 Ga 0.7214 -5.2563 1.8197 0
M  V30 93 Ba 0.2117 -4.2096 2.7282 0
M  V30 94 Ba 2.4917 7.6101 3.3768 0
M  V30 95 Ga 3.1333 6.3104 3.6675 0
M  V30 96 Ba 3.7546 4.9917 3.9138 0
M  V30 97 Ba -1.7882 3.6897 0.3981 0
M  V30 98 Ga -1.3122 3.1888 -0.9082 0
M  V30 99 Ba -0.7741 2.6041 -2.1541 0
M  V30 END ATOM
M  V30 BEGIN BOND
M  V30 1 1 1 2
M  V30 2 1 1 3
M  V30 3 1 1 4
M  V30 4 1 1 5
M  V30 5 1 6 7
M  V30 6 1 6 8
M  V30 7 1 6 9
M  V30 8 1 6 10
M  V30 9 1 11 12
M  V30 10 1 11 13
M  V30 11 1 11 14
M  V30 12 1 11 15
M  V30 13 1 16 17
M  V30 14 1 16 18
M  V30 15 1 16 19
M  V30 16 1 16 20
M  V30 17 1 21 22
M  V30 18 1 21 23
M  V30 19 1 21 24
M  V30 20 1 21 25
M  V30 21 1 26 27
M  V30 22 1 26 28
M  V30 23 1 26 29
M  V30 24 1 26 30
M  V30 25 1 31 32
M  V30 26 1 31 33
M  V30 27 1 31 34
M  V30 28 1 31 35
M  V30 29 1 36 37
M  V30 30 1 36 38
M  V30 31 1 36 39
M  V30 32 1 36 40
M  V30 33 1 41 42
M  V30 34 1 41 43
M  V30 35 1 41 44
M  V30 36 1 41 45
M  V30 37 1 46 47
M  V30 38 1 47 48
M  V30 39 1 49 50
M  V30 40 1 50 51
M  V30 41 1 52 53
M  V30 42 1 53 54
M  V30 43 1 55 56
M  V30 44 1 56 57
M  V30 45 1 58 59
M  V30 46 1 59 60
M  V30 47 1 61 62
M  V30 48 1 62 63
M  V30 49 1 64 65
M  V30 50 1 65 66
M  V30 51 1 67 68
M  V30 52 1 68 69
M  V30 53 1 70 71
M  V30 54 1 71 72
M  V30 55 1 73 74
M  V30 56 1 74 75
M  V30 57 1 76 77
M  V30 58 1 77 78
M  V30 59 1 79 80
M  V30 60 1 80 81
M  V30 61 1 82 83
M  V30 62 1 83 84
M  V30 63 1 85 86
M  V30 64 1 86 87
M  V30 65 1 88 89
M  V30 66 1 89 90
M  V30 67 1 91 92
M  V30 68 1 92 93
M  V30 69 1 94 95
M  V30 70 1 95 96
M  V30 71 1 97 98
M  V30 72 1 98 99
M  V30 73 1 2 91
M  V30 74 1 3 73
M  V30 75 1 4 76
M  V30 76 1 5 52
M  V30 77 1 7 82
M  V30 78 1 8 78
M  V30 79 1 9 75
M  V30 80 1 10 70
M  V30 81 1 12 85
M  V30 82 1 13 97
M  V30 83 1 14 64
M  V30 84 1 15 88
M  V30 85 1 17 61
M  V30 86 1 18 94
M  V30 87 1 19 49
M  V30 88 1 20 66
M  V30 89 1 22 58
M  V30 90 1 23 79
M  V30 91 1 24 90
M  V30 92 1 25 93
M  V30 93 1 27 84
M  V30 94 1 28 55
M  V30 95 1 29 72
M  V30 96 1 30 81
M  V30 97 1 32 60
M  V30 98 1 33 46
M  V30 99 1 34 87
M  V30 100 1 35 96
M  V30 101 1 37 67
M  V30 102 1 38 99
M  V30 103 1 39 54
M  V30 104 1 40 57
M  V30 105 1 42 51
M  V30 106 1 43 63
M  V30 107 1 44 48
M  V30 108 1 45 69
M  V30 END BOND
M  V30 END CTAB
M  END

$$$$
