
     RDKit          3D

  0  0  0  0  0  0  0  0  0  0999 V3000
M  V30 BEGIN CTAB
M  V30 COUNTS 99 108 0 0 0
M  V30 BEGIN ATOM
M  V30 1 Pd 2.5207 0.7944 3.6231 0
M  V30 2 Pb 3.2340 0.1802 3.2818 0
M  V30 3 Pb 1.8005 0.1488 3.3665 0
M  V30 4 Pb 3.2012 1.5137 3.7451 0
M  V30 5 Pb 1.8106 1.3987 3.9780 0
M  V30 6 Pd -5.7756 -4.9408 1.7906 0
M  V30 7 Pb -5.8309 -4.4061 0.9410 0
M  V30 8 Pb -5.7864 -5.5344 2.5881 0
M  V30 9 Pb -6.6070 -4.5271 2.1485 0
M  V30 10 Pb -4.7983 -5.1700 1.6585 0
M  V30 11 Pd 1.2775 -1.7943 -6.6454 0
M  V30 12 Pb 2.2313 -1.5762 -6.8429 0
M  V30 13 Pb 0.3306 -1.9884 -6.3915 0
M  V30 14 Pb 0.9852 -0.9342 -7.0574 0
M  V30 15 Pb 1.6200 -2.5699 -6.1147 0
M  V30 16 Pd 0.8597 5.0765 -4.0053 0
M  V30 17 Pb 0.7076 4.5467 -4.8398 0
M  V30 18 Pb 1.7859 5.3081 -4.3060 0
M  V30 19 Pb -0.0569 4.8206 -3.6907 0
M  V30 20 Pb 1.0226 5.6110 -3.1741 0
M  V30 21 Pd -4.6075 -0.2375 -1.7937 0
M  V30 22 Pb -5.0563 -1.1106 -1.5808 0
M  V30 23 Pb -4.1919 -0.6819 -2.5884 0
M  V30 24 Pb -4.1971 0.6481 -2.0279 0
M  V30 25 Pb -5.0394 0.2129 -1.0131 0
M  V30 26 Pd 5.1865 5.5160 -1.1828 0
M  V30 27 Pb 5.0805 5.6435 -2.1693 0
M  V30 28 Pb 6.0060 4.9594 -1.3184 0
M  V30 29 Pb 5.2657 5.3515 -0.1999 0
M  V30 30 Pb 4.3222 6.0017 -1.0495 0
M  V30 31 Pd 6.7584 -1.6081 -2.2664 0
M  V30 32 Pb 6.6391 -1.7386 -1.2826 0
M  V30 33 Pb 7.2816 -0.7718 -2.1048 0
M  V30 34 Pb 6.1536 -2.3807 -2.4661 0
M  V30 35 Pb 6.7800 -1.4390 -3.2492 0
M  V30 36 Pd -4.6456 0.5585 5.6384 0
M  V30 37 Pb -5.1077 1.0116 4.8805 0
M  V30 38 Pb -4.0979 0.0510 6.3079 0
M  V30 39 Pb -5.3996 -0.1000 5.6133 0
M  V30 40 Pb -3.8964 1.2158 5.5955 0
M  V30 41 Pd -1.4386 -3.4474 4.8335 0
M  V30 42 Pb -1.7796 -4.1638 5.4341 0
M  V30 43 Pb -1.0782 -2.7523 4.2123 0
M  V30 44 Pb -1.4592 -2.8264 5.6200 0
M  V30 45 Pb -1.6008 -4.0434 4.0224 0
M  V30 46 Ag 3.7818 -0.2710 3.0353 0
M  V30 47 Fe 5.1576 -1.0634 1.2681 0
M  V30 48 Ag 6.4943 -1.8055 -0.5501 0
M  V30 49 Ag -5.3432 0.5821 -0.4360 0
M  V30 50 Fe -5.4451 0.9870 1.8997 0
M  V30 51 Ag -5.4260 1.2678 4.2556 0
M  V30 52 Ag -0.7454 4.6182 -3.4651 0
M  V30 53 Fe -2.3067 2.9409 -2.8282 0
M  V30 54 Ag -3.9425 1.3414 -2.1781 0
M  V30 55 Ag 1.9655 -3.0596 -5.6629 0
M  V30 56 Fe 3.7829 -3.1574 -4.1353 0
M  V30 57 Ag 5.6524 -2.8926 -2.6925 0
M  V30 58 Ag -5.7031 -5.9183 3.2157 0
M  V30 59 Fe -4.0834 -5.7547 4.9104 0
M  V30 60 Ag -2.1545 -4.7138 5.7553 0
M  V30 61 Ag 2.9634 -1.4351 -6.8999 0
M  V30 62 Fe 4.9400 -1.3313 -5.5937 0
M  V30 63 Ag 6.6780 -1.3253 -3.9805 0
M  V30 64 Ag 0.7956 -0.2430 -7.2699 0
M  V30 65 Fe 0.6556 1.9841 -6.4613 0
M  V30 66 Ag 0.5916 4.1326 -5.4543 0
M  V30 67 Ag -7.0675 -4.1371 2.5874 0
M  V30 68 Fe -6.7469 -2.3334 4.0973 0
M  V30 69 Ag -5.9848 -0.5486 5.4659 0
M  V30 70 Ag 3.6782 2.0891 3.7277 0
M  V30 71 Fe 4.5769 3.6953 2.2296 0
M  V30 72 Ag 5.3138 5.1756 0.5272 0
M  V30 73 Ag 1.2509 1.8149 4.2470 0
M  V30 74 Fe -1.0241 1.8383 4.9174 0
M  V30 75 Ag -3.3064 1.6713 5.5411 0
M  V30 76 Ag 6.5828 4.4863 -1.3948 0
M  V30 77 Fe 7.2057 2.2152 -1.6999 0
M  V30 78 Ag 7.6092 -0.1043 -2.0098 0
M  V30 79 Ag -0.3805 -2.0995 -6.1829 0
M  V30 80 Fe -2.1428 -1.5712 -4.6805 0
M  V30 81 Ag -3.9085 -1.0457 -3.1812 0
M  V30 82 Ba -5.9462 -4.0734 0.2730 0
M  V30 83 Ga -5.6211 -2.8800 -0.5404 0
M  V30 84 Ba -5.4136 -1.7695 -1.4972 0
M  V30 85 Ba 2.4905 5.4788 -4.5017 0
M  V30 86 Ga 3.7415 5.6120 -3.7298 0
M  V30 87 Ba 4.9596 5.7306 -2.9048 0
M  V30 88 Ba -4.0436 -5.2968 1.6619 0
M  V30 89 Ga -2.9070 -4.8729 2.5424 0
M  V30 90 Ba -1.7441 -4.4718 3.3988 0
M  V30 91 Ba 1.1785 6.0191 -2.5625 0
M  V30 92 Ga 2.3992 6.1932 -1.7501 0
M  V30 93 Ba 3.6494 6.3261 -0.9757 0
M  V30 94 Ba -3.5967 -0.2910 6.7552 0
M  V30 95 Ga -2.5809 -1.3416 6.5166 0
M  V30 96 Ba -1.5838 -2.3969 6.2262 0
M  V30 97 Ba 1.2289 -0.2549 3.0941 0
M  V30 98 Ga 0.2340 -1.2782 3.4679 0
M  V30 99 Ba -0.8198 -2.2881 3.6834 0
M  V30 END ATOM
M  V30 BEGIN BOND
M  V30 1 1 1 2
M  V30 2 1 1 3
M  V30 3 1 1 4
M  V30 4 1 1 5
M  V30 5 1 6 7
M  V30 6 1 6 8
M  V30 7 1 6 9
M  V30 8 1 6 10
M  V30 9 1 11 12
M  V30 10 1 11 13
M  V30 11 1 11 14
M  V30 12 1 11 15
M  V30 13 1 16 17
M  V30 14 1 16 18
M  V30 15 1 16 19
M  V30 16 1 16 20
M  V30 17 1 21 22
M  V30 18 1 21 23
M  V30 19 1 21 24
M  V30 20 1 21 25
M  V30 21 1 26 27
M  V30 22 1 26 28
M  V30 23 1 26 29
M  V30 24 1 26 30
M  V30 25 1 31 32
M  V30 26 1 31 33
M  V30 27 1 31 34
M  V30 28 1 31 35
M  V30 29 1 36 37
M  V30 30 1 36 38
M  V30 31 1 36 39
M  V30 32 1 36 40
M  V30 33 1 41 42
M  V30 34 1 41 43
M  V30 35 1 41 44
M  V30 36 1 41 45
M  V30 37 1 46 47
M  V30 38 1 47 48
M  V30 39 1 49 50
M  V30 40 1 50 51
M  V30 41 1 52 53
M  V30 42 1 53 54
M  V30 43 1 55 56
M  V30 44 1 56 57
M  V30 45 1 58 59
M  V30 46 1 59 60
M  V30 47 1 61 62
M  V30 48 1 62 63
M  V30 49 1 64 65
M  V30 50 1 65 66
M  V30 51 1 67 68
M  V30 52 1 68 69
M  V30 53 1 70 71
M  V30 54 1 71 72
M  V30 55 1 73 74
M  V30 56 1 74 75
M  V30 57 1 76 77
M  V30 58 1 77 78
M  V30 59 1 79 80
M  V30 60 1 80 81
M  V30 61 1 82 83
M  V30 62 1 83 84
M  V30 63 1 85 86
M  V30 64 1 86 87
M  V30 65 1 88 89
M  V30 66 1 89 90
M  V30 67 1 91 92
M  V30 68 1 92 93
M  V30 69 1 94 95
M  V30 70 1 95 96
M  V30 71 1 97 98
M  V30 72 1 98 99
M  V30 73 1 2 46
M  V30 74 1 3 97
M  V30 75 1 4 70
M  V30 76 1 5 73
M  V30 77 1 7 82
M  V30 78 1 8 58
M  V30 79 1 9 67
M  V30 80 1 10 88
M  V30 81 1 12 61
M  V30 82 1 13 79
M  V30 83 1 14 64
M  V30 84 1 15 55
M  V30 85 1 17 66
M  V30 86 1 18 85
M  V30 87 1 19 52
M  V30 88 1 20 91
M  V30 89 1 22 84
M  V30 90 1 23 81
M  V30 91 1 24 54
M  V30 92 1 25 49
M  V30 93 1 27 87
M  V30 94 1 28 76
M  V30 95 1 29 72
M  V30 96 1 30 93
M  V30 97 1 32 48
M  V30 98 1 33 78
M  V30 99 1 34 57
M  V30 100 1 35 63
M  V30 101 1 37 51
M  V30 102 1 38 94
M  V30 103 1 39 69
M  V30 104 1 40 75
M  V30 105 1 42 60
M  V30 106 1 43 99
M  V30 107 1 44 96
M  V30 108 1 45 90
M  V30 END BOND
M  V30 END CTAB
M  END

$$$$
