
     RDKit          3D

  0  0  0  0  0  0  0  0  0  0999 V3000
M  V30 BEGIN CTAB
M  V30 COUNTS 99 108 0 0 0
M  V30 BEGIN ATOM
M  V30 1 Pd 2.4310 -2.1098 -3.3524 0
M  V30 2 Pb 3.1578 -1.4364 -3.5048 0
M  V30 3 Pb 1.7258 -2.8098 -3.2613 0
M  V30 4 Pb 1.9078 -1.7435 -4.1213 0
M  V30 5 Pb 2.9481 -2.4776 -2.5746 0
M  V30 6 Pd -4.1602 -5.9204 5.1940 0
M  V30 7 Pb -4.2311 -4.9686 5.4830 0
M  V30 8 Pb -5.0214 -5.8830 4.6935 0
M  V30 9 Pb -3.2488 -5.9391 5.5870 0
M  V30 10 Pb -3.9579 -6.8069 4.7581 0
M  V30 11 Pd 1.7510 5.4053 1.4553 0
M  V30 12 Pb 1.5902 6.0777 0.7467 0
M  V30 13 Pb 1.9243 4.7423 2.1853 0
M  V30 14 Pb 1.1496 5.9605 2.0271 0
M  V30 15 Pb 2.3538 4.8664 0.8330 0
M  V30 16 Pd -2.9938 6.2722 0.2981 0
M  V30 17 Pb -2.4712 6.7943 0.9714 0
M  V30 18 Pb -3.4655 5.6999 -0.3699 0
M  V30 19 Pb -3.2825 5.6922 1.0565 0
M  V30 20 Pb -2.6257 6.7802 -0.4844 0
M  V30 21 Pd -0.1028 0.5856 4.2617 0
M  V30 22 Pb -0.8024 -0.0754 4.5457 0
M  V30 23 Pb 0.5880 1.2943 4.0985 0
M  V30 24 Pb -0.8467 1.2504 4.1990 0
M  V30 25 Pb 0.6580 -0.0712 4.2765 0
M  V30 26 Pd -0.9240 3.9571 -6.1528 0
M  V30 27 Pb -1.7654 3.8108 -5.6358 0
M  V30 28 Pb -0.0506 4.0731 -6.6263 0
M  V30 29 Pb -0.8740 2.9938 -6.4049 0
M  V30 30 Pb -0.9308 4.8903 -5.7867 0
M  V30 31 Pd 3.5500 3.4738 -4.0560 0
M  V30 32 Pb 3.9687 2.5636 -4.0600 0
M  V30 33 Pb 3.4288 3.4796 -5.0470 0
M  V30 34 Pb 3.6303 3.5061 -3.0398 0
M  V30 35 Pb 3.1607 4.3839 -4.0704 0
M  V30 36 Pd 2.2793 -4.2877 2.1168 0
M  V30 37 Pb 2.4593 -3.4346 2.6138 0
M  V30 38 Pb 2.0985 -5.1755 1.6826 0
M  V30 39 Pb 1.8340 -4.6141 2.9452 0
M  V30 40 Pb 2.8070 -3.9845 1.3169 0
M  V30 41 Pd -2.0103 -7.4062 0.2637 0
M  V30 42 Pb -2.9830 -7.2724 0.0881 0
M  V30 43 Pb -1.7771 -6.9534 -0.5923 0
M  V30 44 Pb -1.0277 -7.5071 0.4410 0
M  V30 45 Pb -2.2670 -7.8290 1.1470 0
M  V30 46 Ag -4.1675 -4.2380 5.6314 0
M  V30 47 Fe -2.7752 -2.3547 5.2240 0
M  V30 48 Ag -1.3847 -0.4695 4.8189 0
M  V30 49 Ag -3.4072 5.2431 1.6410 0
M  V30 50 Fe -2.4789 3.4799 2.9303 0
M  V30 51 Ag -1.4264 1.7202 4.1259 0
M  V30 52 Ag -3.7402 5.2800 -0.9245 0
M  V30 53 Fe -3.1957 4.4357 -3.0736 0
M  V30 54 Ag -2.3605 3.7521 -5.1861 0
M  V30 55 Ag -5.5255 -5.9164 4.1503 0
M  V30 56 Fe -5.1105 -6.4923 1.9013 0
M  V30 57 Ag -3.7142 -7.1377 0.1126 0
M  V30 58 Ag 1.5100 6.5093 0.1549 0
M  V30 59 Fe 2.0353 6.2121 -2.1160 0
M  V30 60 Ag 2.8596 5.0511 -3.9853 0
M  V30 61 Ag -2.3469 7.0625 -1.1248 0
M  V30 62 Fe -1.6273 6.4445 -3.3067 0
M  V30 63 Ag -0.9781 5.5403 -5.4094 0
M  V30 64 Ag -2.5292 -5.9249 5.7681 0
M  V30 65 Fe -0.4368 -5.4149 4.7854 0
M  V30 66 Ag 1.5210 -4.8485 3.5803 0
M  V30 67 Ag 1.4867 -1.4788 -4.6820 0
M  V30 68 Fe 0.3355 0.3446 -5.6726 0
M  V30 69 Ag -0.7582 2.2669 -6.5326 0
M  V30 70 Ag 1.1892 -3.3310 -3.2605 0
M  V30 71 Fe -0.1910 -4.9598 -2.2273 0
M  V30 72 Ag -1.5819 -6.5927 -1.2154 0
M  V30 73 Ba 3.7317 -0.9692 -3.6411 0
M  V30 74 Ga 3.9769 0.4745 -3.8386 0
M  V30 75 Ba 4.3168 1.8972 -4.0488 0
M  V30 76 Ba 1.2961 -0.4757 4.2640 0
M  V30 77 Ga 1.8928 -1.6744 3.6311 0
M  V30 78 Ba 2.5996 -2.8454 3.0629 0
M  V30 79 Ba 2.8399 4.4427 0.4131 0
M  V30 80 Ga 3.2085 4.0260 -0.9772 0
M  V30 81 Ba 3.7298 3.4961 -2.2772 0
M  V30 82 Ba -3.7461 -7.4435 4.4025 0
M  V30 83 Ga -3.1246 -7.7753 3.0900 0
M  V30 84 Ba -2.5026 -8.1598 1.7923 0
M  V30 85 Ba 0.6741 6.4290 2.3665 0
M  V30 86 Ga -0.7007 6.8067 1.9919 0
M  V30 87 Ba -2.0665 7.1022 1.5225 0
M  V30 88 Ba 3.3764 -2.7316 -2.0088 0
M  V30 89 Ga 3.2465 -3.2564 -0.6308 0
M  V30 90 Ba 3.2654 -3.7921 0.7489 0
M  V30 91 Ba 1.9782 -5.8666 1.4043 0
M  V30 92 Ga 0.8292 -6.6943 0.9715 0
M  V30 93 Ba -0.2812 -7.5671 0.5268 0
M  V30 94 Ba 0.6219 4.0740 -6.9599 0
M  V30 95 Ga 1.9726 3.8257 -6.4225 0
M  V30 96 Ba 3.2717 3.5690 -5.7736 0
M  V30 97 Ba 2.1029 4.2507 2.7243 0
M  V30 98 Ga 1.5631 3.0262 3.3511 0
M  V30 99 Ba 1.1440 1.8009 4.0625 0
M  V30 END ATOM
M  V30 BEGIN BOND
M  V30 1 1 1 2
M  V30 2 1 1 3
M  V30 3 1 1 4
M  V30 4 1 1 5
M  V30 5 1 6 7
M  V30 6 1 6 8
M  V30 7 1 6 9
M  V30 8 1 6 10
M  V30 9 1 11 12
M  V30 10 1 11 13
M  V30 11 1 11 14
M  V30 12 1 11 15
M  V30 13 1 16 17
M  V30 14 1 16 18
M  V30 15 1 16 19
M  V30 16 1 16 20
M  V30 17 1 21 22
M  V30 18 1 21 23
M  V30 19 1 21 24
M  V30 20 1 21 25
M  V30 21 1 26 27
M  V30 22 1 26 28
M  V30 23 1 26 29
M  V30 24 1 26 30
M  V30 25 1 31 32
M  V30 26 1 31 33
M  V30 27 1 31 34
M  V30 28 1 31 35
M  V30 29 1 36 37
M  V30 30 1 36 38
M  V30 31 1 36 39
M  V30 32 1 36 40
M  V30 33 1 41 42
M  V30 34 1 41 43
M  V30 35 1 41 44
M  V30 36 1 41 45
M  V30 37 1 46 47
M  V30 38 1 47 48
M  V30 39 1 49 50
M  V30 40 1 50 51
M  V30 41 1 52 53
M  V30 42 1 53 54
M  V30 43 1 55 56
M  V30 44 1 56 57
M  V30 45 1 58 59
M  V30 46 1 59 60
M  V30 47 1 61 62
M  V30 48 1 62 63
M  V30 49 1 64 65
M  V30 50 1 65 66
M  V30 51 1 67 68
M  V30 52 1 68 69
M  V30 53 1 70 71
M  V30 54 1 71 72
M  V30 55 1 73 74
M  V30 56 1 74 75
M  V30 57 1 76 77
M  V30 58 1 77 78
M  V30 59 1 79 80
M  V30 60 1 80 81
M  V30 61 1 82 83
M  V30 62 1 83 84
M  V30 63 1 85 86
M  V30 64 1 86 87
M  V30 65 1 88 89
M  V30 66 1 89 90
M  V30 67 1 91 92
M  V30 68 1 92 93
M  V30 69 1 94 95
M  V30 70 1 95 96
M  V30 71 1 97 98
M  V30 72 1 98 99
M  V30 73 1 2 73
M  V30 74 1 3 70
M  V30 75 1 4 67
M  V30 76 1 5 88
M  V30 77 1 7 46
M  V30 78 1 8 55
M  V30 79 1 9 64
M  V30 80 1 10 82
M  V30 81 1 12 58
M  V30 82 1 13 97
M  V30 83 1 14 85
M  V30 84 1 15 79
M  V30 85 1 17 87
M  V30 86 1 18 52
M  V30 87 1 19 49
M  V30 88 1 20 61
M  V30 89 1 22 48
M  V30 90 1 23 99
M  V30 91 1 24 51
M  V30 92 1 25 76
M  V30 93 1 27 54
M  V30 94 1 28 94
M  V30 95 1 29 69
M  V30 96 1 30 63
M  V30 97 1 32 75
M  V30 98 1 33 96
M  V30 99 1 34 81
M  V30 100 1 35 60
M  V30 101 1 37 78
M  V30 102 1 38 91
M  V30 103 1 39 66
M  V30 104 1 40 90
M  V30 105 1 42 57
M  V30 106 1 43 72
M  V30 107 1 44 93
M  V30 108 1 45 84
M  V30 END BOND
M  V30 END CTAB
M  END

$$$$
