
     RDKit          3D

  0  0  0  0  0  0  0  0  0  0999 V3000
M  V30 BEGIN CTAB
M  V30 COUNTS 99 108 0 0 0
M  V30 BEGIN ATOM
M  V30 1 Pd -3.1224 0.7229 -2.6773 0
M  V30 2 Pb -4.0397 0.3903 -2.8964 0
M  V30 3 Pb -2.2019 0.9906 -2.3889 0
M  V30 4 Pb -2.7394 0.2694 -3.4836 0
M  V30 5 Pb -3.4872 1.1932 -1.8757 0
M  V30 6 Pd 5.2132 6.0518 -0.1075 0
M  V30 7 Pb 5.4666 5.4981 0.6879 0
M  V30 8 Pb 4.8910 6.5845 -0.8884 0
M  V30 9 Pb 4.8982 6.7865 0.4861 0
M  V30 10 Pb 5.3393 5.2753 -0.7225 0
M  V30 11 Pd -2.4807 -4.4466 3.0016 0
M  V30 12 Pb -3.2639 -3.8359 2.8459 0
M  V30 13 Pb -2.0892 -3.7946 3.6514 0
M  V30 14 Pb -1.7048 -5.0690 3.1300 0
M  V30 15 Pb -2.9013 -5.1153 2.3950 0
M  V30 16 Pd 2.7410 -5.4682 1.0116 0
M  V30 17 Pb 2.0391 -5.8367 1.6271 0
M  V30 18 Pb 3.4561 -5.1070 0.4245 0
M  V30 19 Pb 3.1354 -4.9474 1.7688 0
M  V30 20 Pb 2.3597 -5.9700 0.2091 0
M  V30 21 Pd 2.6311 1.0247 5.0831 0
M  V30 22 Pb 3.4066 1.5781 4.7718 0
M  V30 23 Pb 1.8479 0.4660 5.3518 0
M  V30 24 Pb 3.1378 0.1808 4.9090 0
M  V30 25 Pb 2.0911 1.8481 5.2571 0
M  V30 26 Pd 0.7502 -5.1532 -4.5487 0
M  V30 27 Pb 1.6867 -4.8226 -4.5648 0
M  V30 28 Pb -0.1984 -5.4628 -4.5549 0
M  V30 29 Pb 0.4525 -4.4042 -5.1361 0
M  V30 30 Pb 0.9982 -5.8041 -3.8070 0
M  V30 31 Pd -5.5702 -3.7676 -1.1667 0
M  V30 32 Pb -5.8510 -2.9517 -1.6778 0
M  V30 33 Pb -5.3688 -4.2518 -2.0132 0
M  V30 34 Pb -5.2805 -4.5906 -0.6851 0
M  V30 35 Pb -5.6550 -3.2982 -0.2858 0
M  V30 36 Pd -1.4405 6.4020 1.8242 0
M  V30 37 Pb -1.2458 6.1019 2.7560 0
M  V30 38 Pb -1.5605 6.6124 0.8521 0
M  V30 39 Pb -0.6874 7.0521 1.9116 0
M  V30 40 Pb -2.1585 5.7152 1.7309 0
M  V30 41 Pd 1.2681 4.6980 -2.4872 0
M  V30 42 Pb 1.7267 5.5504 -2.7326 0
M  V30 43 Pb 0.8587 3.8260 -2.2132 0
M  V30 44 Pb 0.4120 5.2040 -2.3475 0
M  V30 45 Pb 2.1525 4.2324 -2.5825 0
M  V30 46 Ag 5.6177 5.0795 1.2939 0
M  V30 47 Fe 4.8292 3.5340 2.9191 0
M  V30 48 Ag 3.9818 1.9896 4.5157 0
M  V30 49 Ag 1.6532 2.4449 5.3784 0
M  V30 50 Fe 0.2944 4.1692 4.4748 0
M  V30 51 Ag -1.0255 5.8367 3.4200 0
M  V30 52 Ag 3.4510 -4.5311 2.3072 0
M  V30 53 Fe 3.4900 -2.5157 3.5629 0
M  V30 54 Ag 3.4717 -0.4784 4.7833 0
M  V30 55 Ag 3.9051 -4.8517 -0.1052 0
M  V30 56 Fe 3.5973 -4.5399 -2.4178 0
M  V30 57 Ag 2.3798 -4.6032 -4.4309 0
M  V30 58 Ag 4.5072 7.2857 0.8778 0
M  V30 59 Fe 2.2486 7.5704 1.5387 0
M  V30 60 Ag -0.0762 7.4761 1.9945 0
M  V30 61 Ag -2.4237 -0.0693 -4.0753 0
M  V30 62 Fe -1.1375 -1.8906 -4.8922 0
M  V30 63 Ag 0.1526 -3.8011 -5.4606 0
M  V30 64 Ag -3.7239 1.5712 -1.2749 0
M  V30 65 Fe -3.2785 3.3584 0.2207 0
M  V30 66 Ag -2.6683 5.1813 1.6113 0
M  V30 67 Ag -0.9283 -5.6230 -4.5872 0
M  V30 68 Fe -3.0801 -5.2118 -3.6799 0
M  V30 69 Ag -5.1086 -4.6445 -2.5914 0
M  V30 70 Ag -1.8173 -3.3145 4.1598 0
M  V30 71 Fe -0.2789 -1.6402 4.8441 0
M  V30 72 Ag 1.2612 0.0340 5.5252 0
M  V30 73 Ba -4.7283 0.1158 -3.0115 0
M  V30 74 Ga -5.4028 -1.1167 -2.5551 0
M  V30 75 Ba -6.0585 -2.3550 -2.0872 0
M  V30 76 Ba -3.2455 -5.6061 1.9509 0
M  V30 77 Ga -4.1455 -5.4380 0.8014 0
M  V30 78 Ba -5.0396 -5.2086 -0.3420 0
M  V30 79 Ba 5.3039 4.7053 -1.2074 0
M  V30 80 Ga 4.1086 4.2558 -1.9510 0
M  V30 81 Ba 2.8370 3.9190 -2.6248 0
M  V30 82 Ba 4.5851 6.9512 -1.4649 0
M  V30 83 Ga 3.3652 6.6241 -2.2215 0
M  V30 84 Ba 2.1315 6.1625 -2.8791 0
M  V30 85 Ba -3.8594 -3.3899 2.7155 0
M  V30 86 Ga -4.7677 -3.1698 1.5671 0
M  V30 87 Ba -5.6531 -2.9797 0.3957 0
M  V30 88 Ba 2.1079 -6.3811 -0.3912 0
M  V30 89 Ga 1.6400 -6.2580 -1.8091 0
M  V30 90 Ba 1.1573 -6.2818 -3.2273 0
M  V30 91 Ba -1.1443 -5.5643 3.2167 0
M  V30 92 Ga 0.1978 -5.8107 2.6453 0
M  V30 93 Ba 1.5457 -6.1208 2.1208 0
M  V30 94 Ba -1.6472 6.7006 0.1101 0
M  V30 95 Ga -0.9269 6.1685 -1.0681 0
M  V30 96 Ba -0.2008 5.6307 -2.2401 0
M  V30 97 Ba -1.5180 1.1365 -2.1147 0
M  V30 98 Ga -0.4856 2.1920 -2.0984 0
M  V30 99 Ba 0.6362 3.1454 -1.9854 0
M  V30 END ATOM
M  V30 BEGIN BOND
M  V30 1 1 1 2
M  V30 2 1 1 3
M  V30 3 1 1 4
M  V30 4 1 1 5
M  V30 5 1 6 7
M  V30 6 1 6 8
M  V30 7 1 6 9
M  V30 8 1 6 10
M  V30 9 1 11 12
M  V30 10 1 11 13
M  V30 11 1 11 14
M  V30 12 1 11 15
M  V30 13 1 16 17
M  V30 14 1 16 18
M  V30 15 1 16 19
M  V30 16 1 16 20
M  V30 17 1 21 22
M  V30 18 1 21 23
M  V30 19 1 21 24
M  V30 20 1 21 25
M  V30 21 1 26 27
M  V30 22 1 26 28
M  V30 23 1 26 29
M  V30 24 1 26 30
M  V30 25 1 31 32
M  V30 26 1 31 33
M  V30 27 1 31 34
M  V30 28 1 31 35
M  V30 29 1 36 37
M  V30 30 1 36 38
M  V30 31 1 36 39
M  V30 32 1 36 40
M  V30 33 1 41 42
M  V30 34 1 41 43
M  V30 35 1 41 44
M  V30 36 1 41 45
M  V30 37 1 46 47
M  V30 38 1 47 48
M  V30 39 1 49 50
M  V30 40 1 50 51
M  V30 41 1 52 53
M  V30 42 1 53 54
M  V30 43 1 55 56
M  V30 44 1 56 57
M  V30 45 1 58 59
M  V30 46 1 59 60
M  V30 47 1 61 62
M  V30 48 1 62 63
M  V30 49 1 64 65
M  V30 50 1 65 66
M  V30 51 1 67 68
M  V30 52 1 68 69
M  V30 53 1 70 71
M  V30 54 1 71 72
M  V30 55 1 73 74
M  V30 56 1 74 75
M  V30 57 1 76 77
M  V30 58 1 77 78
M  V30 59 1 79 80
M  V30 60 1 80 81
M  V30 61 1 82 83
M  V30 62 1 83 84
M  V30 63 1 85 86
M  V30 64 1 86 87
M  V30 65 1 88 89
M  V30 66 1 89 90
M  V30 67 1 91 92
M  V30 68 1 92 93
M  V30 69 1 94 95
M  V30 70 1 95 96
M  V30 71 1 97 98
M  V30 72 1 98 99
M  V30 73 1 2 73
M  V30 74 1 3 97
M  V30 75 1 4 61
M  V30 76 1 5 64
M  V30 77 1 7 46
M  V30 78 1 8 82
M  V30 79 1 9 58
M  V30 80 1 10 79
M  V30 81 1 12 85
M  V30 82 1 13 70
M  V30 83 1 14 91
M  V30 84 1 15 76
M  V30 85 1 17 93
M  V30 86 1 18 55
M  V30 87 1 19 52
M  V30 88 1 20 88
M  V30 89 1 22 48
M  V30 90 1 23 72
M  V30 91 1 24 54
M  V30 92 1 25 49
M  V30 93 1 27 57
M  V30 94 1 28 67
M  V30 95 1 29 63
M  V30 96 1 30 90
M  V30 97 1 32 75
M  V30 98 1 33 69
M  V30 99 1 34 78
M  V30 100 1 35 87
M  V30 101 1 37 51
M  V30 102 1 38 94
M  V30 103 1 39 60
M  V30 104 1 40 66
M  V30 105 1 42 84
M  V30 106 1 43 99
M  V30 107 1 44 96
M  V30 108 1 45 81
M  V30 END BOND
M  V30 END CTAB
M  END

$$$$
