
     RDKit          3D

  0  0  0  0  0  0  0  0  0  0999 V3000
M  V30 BEGIN CTAB
M  V30 COUNTS 99 108 0 0 0
M  V30 BEGIN ATOM
M  V30 1 Pd -1.8246 3.2124 3.3241 0
M  V30 2 Pb -2.7881 2.9382 3.3971 0
M  V30 3 Pb -0.8797 3.5341 3.3151 0
M  V30 4 Pb -2.0374 3.9832 2.7234 0
M  V30 5 Pb -1.5498 2.4466 3.9079 0
M  V30 6 Pd 7.0084 -2.8422 1.0612 0
M  V30 7 Pb 6.5276 -3.2345 0.2716 0
M  V30 8 Pb 7.1570 -1.9757 0.5803 0
M  V30 9 Pb 6.7635 -3.5523 1.7201 0
M  V30 10 Pb 7.5698 -2.4809 1.7932 0
M  V30 11 Pd -5.5280 -3.1686 -2.1485 0
M  V30 12 Pb -5.6385 -3.0832 -1.1565 0
M  V30 13 Pb -4.7834 -3.8227 -2.0321 0
M  V30 14 Pb -5.3814 -3.2265 -3.1360 0
M  V30 15 Pb -6.2485 -2.4885 -2.2717 0
M  V30 16 Pd -1.2827 0.0159 -7.1374 0
M  V30 17 Pb -1.9025 -0.7636 -7.2042 0
M  V30 18 Pb -2.0473 0.6333 -7.3066 0
M  V30 19 Pb -0.5217 -0.6049 -6.9396 0
M  V30 20 Pb -0.7400 0.8358 -6.9412 0
M  V30 21 Pd 2.1721 -4.5512 -1.9760 0
M  V30 22 Pb 3.1605 -4.3878 -1.9495 0
M  V30 23 Pb 1.2003 -4.7840 -1.9957 0
M  V30 24 Pb 2.1445 -4.2383 -2.9272 0
M  V30 25 Pb 2.1703 -4.8020 -1.0127 0
M  V30 26 Pd -3.4714 5.7797 -3.6692 0
M  V30 27 Pb -3.8569 5.3865 -4.4996 0
M  V30 28 Pb -4.3668 5.8204 -3.2324 0
M  V30 29 Pb -3.0996 6.0916 -2.7970 0
M  V30 30 Pb -2.5689 5.6007 -4.0695 0
M  V30 31 Pd -6.6288 1.0323 0.7884 0
M  V30 32 Pb -6.2251 1.3895 1.6343 0
M  V30 33 Pb -6.8067 1.9593 0.4604 0
M  V30 34 Pb -7.0445 0.6764 -0.0485 0
M  V30 35 Pb -6.4445 0.0914 1.0764 0
M  V30 36 Pd 3.6723 -2.0445 5.0601 0
M  V30 37 Pb 3.2245 -2.7381 4.5031 0
M  V30 38 Pb 4.0965 -1.3496 5.6562 0
M  V30 39 Pb 4.4972 -2.6010 4.8922 0
M  V30 40 Pb 2.7976 -1.5765 5.2088 0
M  V30 41 Pd 5.9286 2.7123 4.5569 0
M  V30 42 Pb 6.2531 2.8048 3.6127 0
M  V30 43 Pb 5.0950 3.2131 4.3347 0
M  V30 44 Pb 5.5668 2.3699 5.4226 0
M  V30 45 Pb 6.7522 2.1997 4.7562 0
M  V30 46 Ag 2.1247 -4.9421 -0.2818 0
M  V30 47 Fe 2.5149 -4.1566 1.9200 0
M  V30 48 Ag 2.9438 -3.2868 4.0825 0
M  V30 49 Ag 0.0261 -1.0958 -6.7837 0
M  V30 50 Fe 1.0893 -2.5377 -5.2213 0
M  V30 51 Ag 2.1229 -3.9671 -3.6279 0
M  V30 52 Ag -2.5915 1.1401 -7.3759 0
M  V30 53 Fe -3.4723 3.0969 -6.3699 0
M  V30 54 Ag -4.0715 5.0105 -5.1069 0
M  V30 55 Ag 7.9640 -2.1687 2.3358 0
M  V30 56 Fe 7.9218 -0.2778 3.7435 0
M  V30 57 Ag 7.3185 1.7310 4.8191 0
M  V30 58 Ag 7.2249 -1.2496 0.3922 0
M  V30 59 Fe 6.9186 0.8586 1.4533 0
M  V30 60 Ag 6.4832 2.6951 2.9034 0
M  V30 61 Ag -0.4485 1.4982 -6.7322 0
M  V30 62 Fe -1.0417 3.4986 -5.5878 0
M  V30 63 Ag -1.9383 5.3580 -4.4036 0
M  V30 64 Ag -5.2119 -3.2600 -3.8657 0
M  V30 65 Fe -3.8618 -2.3691 -5.6030 0
M  V30 66 Ag -2.4115 -1.3096 -7.1550 0
M  V30 67 Ag -2.1028 4.5711 2.2614 0
M  V30 68 Fe -2.4939 5.4623 0.0953 0
M  V30 69 Ag -2.9040 6.2749 -2.0980 0
M  V30 70 Ag -1.3042 1.8810 4.3375 0
M  V30 71 Fe 0.4150 0.3140 4.8300 0
M  V30 72 Ag 2.1270 -1.2573 5.3335 0
M  V30 73 Ag -0.1895 3.8224 3.3302 0
M  V30 74 Fe 2.1427 3.6745 3.7404 0
M  V30 75 Ag 4.4813 3.5891 4.1322 0
M  V30 76 Ag -4.9934 5.7620 -2.8296 0
M  V30 77 Fe -6.0739 4.2881 -1.3167 0
M  V30 78 Ag -6.9226 2.6355 0.1594 0
M  V30 79 Ag -4.2081 -4.2981 -1.9810 0
M  V30 80 Fe -1.8584 -4.6354 -1.9752 0
M  V30 81 Ag 0.4857 -5.0092 -1.9673 0
M  V30 82 Ba 6.2650 -3.5056 -0.3815 0
M  V30 83 Ga 5.0335 -3.8886 -1.1050 0
M  V30 84 Ba 3.9086 -4.3123 -1.9667 0
M  V30 85 Ba -3.5079 2.7523 3.5253 0
M  V30 86 Ga -4.6987 2.1964 2.8459 0
M  V30 87 Ba -5.9559 1.6533 2.2859 0
M  V30 88 Ba -6.7730 -1.9586 -2.3370 0
M  V30 89 Ga -7.0845 -0.7717 -1.5210 0
M  V30 90 Ba -7.3565 0.4026 -0.6731 0
M  V30 91 Ba -5.7165 -2.9907 -0.4145 0
M  V30 92 Ga -6.0125 -1.8219 0.4389 0
M  V30 93 Ba -6.3111 -0.6263 1.2535 0
M  V30 94 Ba 6.6208 -3.9372 2.3513 0
M  V30 95 Ga 5.8105 -3.5542 3.5373 0
M  V30 96 Ba 5.0011 -3.1432 4.7146 0
M  V30 97 Ba 4.3111 -0.8048 6.1403 0
M  V30 98 Ga 4.8246 0.5862 6.0923 0
M  V30 99 Ba 5.3461 1.9731 6.0207 0
M  V30 END ATOM
M  V30 BEGIN BOND
M  V30 1 1 1 2
M  V30 2 1 1 3
M  V30 3 1 1 4
M  V30 4 1 1 5
M  V30 5 1 6 7
M  V30 6 1 6 8
M  V30 7 1 6 9
M  V30 8 1 6 10
M  V30 9 1 11 12
M  V30 10 1 11 13
M  V30 11 1 11 14
M  V30 12 1 11 15
M  V30 13 1 16 17
M  V30 14 1 16 18
M  V30 15 1 16 19
M  V30 16 1 16 20
M  V30 17 1 21 22
M  V30 18 1 21 23
M  V30 19 1 21 24
M  V30 20 1 21 25
M  V30 21 1 26 27
M  V30 22 1 26 28
M  V30 23 1 26 29
M  V30 24 1 26 30
M  V30 25 1 31 32
M  V30 26 1 31 33
M  V30 27 1 31 34
M  V30 28 1 31 35
M  V30 29 1 36 37
M  V30 30 1 36 38
M  V30 31 1 36 39
M  V30 32 1 36 40
M  V30 33 1 41 42
M  V30 34 1 41 43
M  V30 35 1 41 44
M  V30 36 1 41 45
M  V30 37 1 46 47
M  V30 38 1 47 48
M  V30 39 1 49 50
M  V30 40 1 50 51
M  V30 41 1 52 53
M  V30 42 1 53 54
M  V30 43 1 55 56
M  V30 44 1 56 57
M  V30 45 1 58 59
M  V30 46 1 59 60
M  V30 47 1 61 62
M  V30 48 1 62 63
M  V30 49 1 64 65
M  V30 50 1 65 66
M  V30 51 1 67 68
M  V30 52 1 68 69
M  V30 53 1 70 71
M  V30 54 1 71 72
M  V30 55 1 73 74
M  V30 56 1 74 75
M  V30 57 1 76 77
M  V30 58 1 77 78
M  V30 59 1 79 80
M  V30 60 1 80 81
M  V30 61 1 82 83
M  V30 62 1 83 84
M  V30 63 1 85 86
M  V30 64 1 86 87
M  V30 65 1 88 89
M  V30 66 1 89 90
M  V30 67 1 91 92
M  V30 68 1 92 93
M  V30 69 1 94 95
M  V30 70 1 95 96
M  V30 71 1 97 98
M  V30 72 1 98 99
M  V30 73 1 2 85
M  V30 74 1 3 73
M  V30 75 1 4 67
M  V30 76 1 5 70
M  V30 77 1 7 82
M  V30 78 1 8 58
M  V30 79 1 9 94
M  V30 80 1 10 55
M  V30 81 1 12 91
M  V30 82 1 13 79
M  V30 83 1 14 64
M  V30 84 1 15 88
M  V30 85 1 17 66
M  V30 86 1 18 52
M  V30 87 1 19 49
M  V30 88 1 20 61
M  V30 89 1 22 84
M  V30 90 1 23 81
M  V30 91 1 24 51
M  V30 92 1 25 46
M  V30 93 1 27 54
M  V30 94 1 28 76
M  V30 95 1 29 69
M  V30 96 1 30 63
M  V30 97 1 32 87
M  V30 98 1 33 78
M  V30 99 1 34 90
M  V30 100 1 35 93
M  V30 101 1 37 48
M  V30 102 1 38 97
M  V30 103 1 39 96
M  V30 104 1 40 72
M  V30 105 1 42 60
M  V30 106 1 43 75
M  V30 107 1 44 99
M  V30 108 1 45 57
M  V30 END BOND
M  V30 END CTAB
M  END

$$$$
