
     RDKit          3D

  0  0  0  0  0  0  0  0  0  0999 V3000
M  V30 BEGIN CTAB
M  V30 COUNTS 99 108 0 0 0
M  V30 BEGIN ATOM
M  V30 1 Pd -2.7723 0.8631 3.4479 0
M  V30 2 Pb -3.2397 0.5060 2.6393 0
M  V30 3 Pb -3.6290 1.3091 3.7253 0
M  V30 4 Pb -1.9406 0.3543 3.2196 0
M  V30 5 Pb -2.2490 1.2506 4.2088 0
M  V30 6 Pd -3.0382 5.8456 -2.6952 0
M  V30 7 Pb -2.3291 5.3121 -3.1507 0
M  V30 8 Pb -3.7350 6.3272 -2.1453 0
M  V30 9 Pb -2.2962 6.3487 -2.2571 0
M  V30 10 Pb -3.7712 5.2803 -3.0665 0
M  V30 11 Pd 2.7362 -2.9196 -4.3300 0
M  V30 12 Pb 2.1970 -3.7585 -4.2438 0
M  V30 13 Pb 3.2479 -2.0637 -4.4264 0
M  V30 14 Pb 3.5881 -3.4412 -4.2141 0
M  V30 15 Pb 1.8873 -2.4146 -4.4963 0
M  V30 16 Pd 5.7204 -5.4054 -0.4005 0
M  V30 17 Pb 5.8218 -5.3263 -1.3935 0
M  V30 18 Pb 5.5258 -5.4455 0.5913 0
M  V30 19 Pb 5.9808 -4.4478 -0.3036 0
M  V30 20 Pb 5.4645 -6.3669 -0.4632 0
M  V30 21 Pd 3.5045 1.7501 -1.4263 0
M  V30 22 Pb 2.7469 2.2426 -1.8584 0
M  V30 23 Pb 3.7306 1.3821 -2.3308 0
M  V30 24 Pb 4.2567 1.2153 -1.0511 0
M  V30 25 Pb 3.3458 2.0901 -0.4920 0
M  V30 26 Pd 1.2933 -5.8760 3.0524 0
M  V30 27 Pb 2.2917 -5.7526 3.1429 0
M  V30 28 Pb 0.3302 -5.9988 2.8279 0
M  V30 29 Pb 1.1643 -4.8824 3.0876 0
M  V30 30 Pb 1.4530 -6.8450 2.8836 0
M  V30 31 Pd -2.1954 -3.5864 -2.6722 0
M  V30 32 Pb -2.8045 -2.9128 -2.2568 0
M  V30 33 Pb -2.4643 -4.2217 -1.9520 0
M  V30 34 Pb -1.8616 -2.9178 -3.3346 0
M  V30 35 Pb -1.5453 -4.2528 -3.0402 0
M  V30 36 Pd 0.8695 4.5493 3.2176 0
M  V30 37 Pb 1.6200 3.9847 2.8673 0
M  V30 38 Pb 0.1102 5.1027 3.5495 0
M  V30 39 Pb 0.9772 5.1956 2.4650 0
M  V30 40 Pb 0.6699 3.9080 3.9617 0
M  V30 41 Pd -6.2207 4.8970 1.8884 0
M  V30 42 Pb -6.0745 5.6112 1.1884 0
M  V30 43 Pb -6.2752 4.1648 2.5683 0
M  V30 44 Pb -5.6438 5.4049 2.5210 0
M  V30 45 Pb -6.7253 4.3720 1.2070 0
M  V30 46 Ag -1.7495 4.9187 -3.4128 0
M  V30 47 Fe 0.2243 3.7352 -2.8231 0
M  V30 48 Ag 2.2095 2.5439 -2.2904 0
M  V30 49 Ag -3.5681 0.2627 2.0106 0
M  V30 50 Fe -3.4553 -1.0656 0.0460 0
M  V30 51 Ag -3.2391 -2.4293 -1.8854 0
M  V30 52 Ag 6.1606 -3.7278 -0.2178 0
M  V30 53 Fe 5.5407 -1.4545 -0.4801 0
M  V30 54 Ag 4.8045 0.7768 -0.7973 0
M  V30 55 Ag -4.3758 4.8571 -3.1588 0
M  V30 56 Fe -5.9863 4.1716 -1.5742 0
M  V30 57 Ag -6.9562 4.0556 0.5752 0
M  V30 58 Ag 5.1833 -7.0479 -0.3635 0
M  V30 59 Fe 3.4376 -7.7924 1.0380 0
M  V30 60 Ag 1.6980 -7.4862 2.6013 0
M  V30 61 Ag -1.7045 6.6333 -1.8995 0
M  V30 62 Fe -0.2822 6.2812 -0.0341 0
M  V30 63 Ag 0.9571 5.6825 1.8978 0
M  V30 64 Ag -1.3048 -0.0324 3.1138 0
M  V30 65 Fe -0.1330 -2.1008 3.0812 0
M  V30 66 Ag 1.0978 -4.1344 3.0349 0
M  V30 67 Ag -0.4910 5.4849 3.7716 0
M  V30 68 Fe -2.8286 5.7288 3.4718 0
M  V30 69 Ag -5.1411 5.7403 2.9569 0
M  V30 70 Ag -0.3573 -6.0736 2.5475 0
M  V30 71 Fe -1.6380 -5.4511 0.6524 0
M  V30 72 Ag -2.6088 -4.6469 -1.3550 0
M  V30 73 Ba 3.3628 2.2610 0.2455 0
M  V30 74 Ga 2.7002 2.9482 1.3771 0
M  V30 75 Ba 2.1961 3.5659 2.6254 0
M  V30 76 Ba 5.3741 -5.4606 1.3374 0
M  V30 77 Ga 4.1894 -5.5698 2.2335 0
M  V30 78 Ba 3.0470 -5.6747 3.1835 0
M  V30 79 Ba 1.2468 -2.0504 -4.6453 0
M  V30 80 Ga -0.1616 -2.2165 -4.2385 0
M  V30 81 Ba -1.5565 -2.4202 -3.8035 0
M  V30 82 Ba -4.2687 6.6736 -1.7294 0
M  V30 83 Ga -5.0956 6.3790 -0.5271 0
M  V30 84 Ba -5.9544 6.1523 0.6674 0
M  V30 85 Ba 1.7618 -4.3679 -4.1869 0
M  V30 86 Ga 0.3671 -4.5743 -3.7482 0
M  V30 87 Ba -1.0309 -4.7341 -3.3009 0
M  V30 88 Ba 4.2263 -3.8431 -4.1702 0
M  V30 89 Ga 5.0368 -4.5328 -3.1418 0
M  V30 90 Ba 5.8696 -5.2316 -2.1375 0
M  V30 91 Ba -1.7755 1.5163 4.7293 0
M  V30 92 Ga -0.6624 2.4875 4.6565 0
M  V30 93 Ba 0.4381 3.4673 4.5265 0
M  V30 94 Ba -4.3014 1.5800 3.9364 0
M  V30 95 Ga -5.2697 2.6117 3.5046 0
M  V30 96 Ba -6.2589 3.6347 3.1001 0
M  V30 97 Ba 3.6041 -1.4080 -4.5186 0
M  V30 98 Ga 3.7604 -0.1592 -3.7439 0
M  V30 99 Ba 3.9384 1.1046 -2.9986 0
M  V30 END ATOM
M  V30 BEGIN BOND
M  V30 1 1 1 2
M  V30 2 1 1 3
M  V30 3 1 1 4
M  V30 4 1 1 5
M  V30 5 1 6 7
M  V30 6 1 6 8
M  V30 7 1 6 9
M  V30 8 1 6 10
M  V30 9 1 11 12
M  V30 10 1 11 13
M  V30 11 1 11 14
M  V30 12 1 11 15
M  V30 13 1 16 17
M  V30 14 1 16 18
M  V30 15 1 16 19
M  V30 16 1 16 20
M  V30 17 1 21 22
M  V30 18 1 21 23
M  V30 19 1 21 24
M  V30 20 1 21 25
M  V30 21 1 26 27
M  V30 22 1 26 28
M  V30 23 1 26 29
M  V30 24 1 26 30
M  V30 25 1 31 32
M  V30 26 1 31 33
M  V30 27 1 31 34
M  V30 28 1 31 35
M  V30 29 1 36 37
M  V30 30 1 36 38
M  V30 31 1 36 39
M  V30 32 1 36 40
M  V30 33 1 41 42
M  V30 34 1 41 43
M  V30 35 1 41 44
M  V30 36 1 41 45
M  V30 37 1 46 47
M  V30 38 1 47 48
M  V30 39 1 49 50
M  V30 40 1 50 51
M  V30 41 1 52 53
M  V30 42 1 53 54
M  V30 43 1 55 56
M  V30 44 1 56 57
M  V30 45 1 58 59
M  V30 46 1 59 60
M  V30 47 1 61 62
M  V30 48 1 62 63
M  V30 49 1 64 65
M  V30 50 1 65 66
M  V30 51 1 67 68
M  V30 52 1 68 69
M  V30 53 1 70 71
M  V30 54 1 71 72
M  V30 55 1 73 74
M  V30 56 1 74 75
M  V30 57 1 76 77
M  V30 58 1 77 78
M  V30 59 1 79 80
M  V30 60 1 80 81
M  V30 61 1 82 83
M  V30 62 1 83 84
M  V30 63 1 85 86
M  V30 64 1 86 87
M  V30 65 1 88 89
M  V30 66 1 89 90
M  V30 67 1 91 92
M  V30 68 1 92 93
M  V30 69 1 94 95
M  V30 70 1 95 96
M  V30 71 1 97 98
M  V30 72 1 98 99
M  V30 73 1 2 49
M  V30 74 1 3 94
M  V30 75 1 4 64
M  V30 76 1 5 91
M  V30 77 1 7 46
M  V30 78 1 8 82
M  V30 79 1 9 61
M  V30 80 1 10 55
M  V30 81 1 12 85
M  V30 82 1 13 97
M  V30 83 1 14 88
M  V30 84 1 15 79
M  V30 85 1 17 90
M  V30 86 1 18 76
M  V30 87 1 19 52
M  V30 88 1 20 58
M  V30 89 1 22 48
M  V30 90 1 23 99
M  V30 91 1 24 54
M  V30 92 1 25 73
M  V30 93 1 27 78
M  V30 94 1 28 70
M  V30 95 1 29 66
M  V30 96 1 30 60
M  V30 97 1 32 51
M  V30 98 1 33 72
M  V30 99 1 34 81
M  V30 100 1 35 87
M  V30 101 1 37 75
M  V30 102 1 38 67
M  V30 103 1 39 63
M  V30 104 1 40 93
M  V30 105 1 42 84
M  V30 106 1 43 96
M  V30 107 1 44 69
M  V30 108 1 45 57
M  V30 END BOND
M  V30 END CTAB
M  END

$$$$
