
     RDKit          3D

  0  0  0  0  0  0  0  0  0  0999 V3000
M  V30 BEGIN CTAB
M  V30 COUNTS 99 108 0 0 0
M  V30 BEGIN ATOM
M  V30 1 Pd 0.0812 5.9351 -8.5464 0
M  V30 2 Pb 0.7141 6.0550 -7.7824 0
M  V30 3 Pb -0.3615 6.8155 -8.3490 0
M  V30 4 Pb 0.2939 4.9584 -8.6103 0
M  V30 5 Pb -0.6073 5.8005 -9.2572 0
M  V30 6 Pd 0.2622 -1.4233 -1.7187 0
M  V30 7 Pb -0.2460 -1.8955 -1.0079 0
M  V30 8 Pb 0.8000 -0.9374 -2.4104 0
M  V30 9 Pb -0.5913 -0.9380 -1.9922 0
M  V30 10 Pb 1.0903 -1.8811 -1.3993 0
M  V30 11 Pd 0.2459 -4.0426 6.4745 0
M  V30 12 Pb -0.1384 -3.4375 5.7773 0
M  V30 13 Pb 1.1064 -3.5268 6.4782 0
M  V30 14 Pb 0.5507 -4.6110 7.2376 0
M  V30 15 Pb -0.5270 -4.6703 6.3605 0
M  V30 16 Pd 4.0149 -5.5953 3.8182 0
M  V30 17 Pb 4.1045 -4.7573 4.3621 0
M  V30 18 Pb 4.2868 -6.1578 4.5977 0
M  V30 19 Pb 3.8567 -5.0656 2.9839 0
M  V30 20 Pb 3.7549 -6.4396 3.3445 0
M  V30 21 Pd 2.5804 3.3044 -1.6872 0
M  V30 22 Pb 2.6677 2.6203 -0.9664 0
M  V30 23 Pb 2.6301 2.5841 -2.3793 0
M  V30 24 Pb 2.5587 3.9976 -2.4082 0
M  V30 25 Pb 2.4360 4.0004 -0.9802 0
M  V30 26 Pd -4.3375 5.5530 -7.1242 0
M  V30 27 Pb -4.3932 4.5532 -7.1000 0
M  V30 28 Pb -4.4265 5.6155 -6.1307 0
M  V30 29 Pb -4.0057 6.5002 -7.1771 0
M  V30 30 Pb -4.1742 5.4897 -8.1075 0
M  V30 31 Pd -0.1382 2.7425 2.6295 0
M  V30 32 Pb 0.3038 3.5830 2.3078 0
M  V30 33 Pb -0.9840 3.2314 2.8519 0
M  V30 34 Pb 0.6767 2.2346 2.3636 0
M  V30 35 Pb -0.5553 1.8727 2.8906 0
M  V30 36 Pd 1.2051 -8.6544 6.1245 0
M  V30 37 Pb 2.1742 -8.7683 6.3115 0
M  V30 38 Pb 1.1023 -8.3306 7.0588 0
M  V30 39 Pb 0.2565 -8.3836 5.9524 0
M  V30 40 Pb 1.3937 -8.8466 5.1595 0
M  V30 41 Pd -3.9975 2.2665 -0.0462 0
M  V30 42 Pb -3.7054 1.6710 -0.8164 0
M  V30 43 Pb -4.0617 3.0609 -0.6499 0
M  V30 44 Pb -4.1193 2.8566 0.7491 0
M  V30 45 Pb -4.0005 1.4741 0.5524 0
M  V30 46 Ag -4.4528 5.6694 -5.3836 0
M  V30 47 Fe -4.3015 4.6554 -3.2416 0
M  V30 48 Ag -4.1533 3.6608 -1.0904 0
M  V30 49 Ag -0.6874 -2.1123 -0.4563 0
M  V30 50 Fe -2.4621 -0.9829 0.5972 0
M  V30 51 Ag -3.9273 0.8314 0.9109 0
M  V30 52 Ag 0.1611 4.2247 -8.5637 0
M  V30 53 Fe -1.9399 3.3805 -7.8827 0
M  V30 54 Ag -4.1461 3.8523 -7.1753 0
M  V30 55 Ag 1.1554 6.1407 -7.1827 0
M  V30 56 Fe 1.8728 5.3298 -5.0689 0
M  V30 57 Ag 2.5822 4.5103 -2.9557 0
M  V30 58 Ag -0.4806 -2.9729 5.2979 0
M  V30 59 Fe -0.6469 -0.8867 4.1754 0
M  V30 60 Ag -0.8308 1.1924 3.0424 0
M  V30 61 Ag 1.7012 -2.2175 -1.1265 0
M  V30 62 Fe 2.7214 -3.4600 0.6219 0
M  V30 63 Ag 3.8110 -4.7003 2.3292 0
M  V30 64 Ba 1.2327 -0.5773 -2.9089 0
M  V30 65 Ga 1.9315 0.7235 -2.9172 0
M  V30 66 Ba 2.6145 2.0324 -2.8876 0
M  V30 67 Ba 1.7857 -3.2052 6.4191 0
M  V30 68 Ga 2.9675 -3.6241 5.6304 0
M  V30 69 Ba 4.0783 -4.1447 4.8003 0
M  V30 70 Ba -0.8121 7.3960 -8.1672 0
M  V30 71 Ga -2.2260 7.3544 -7.7078 0
M  V30 72 Ba -3.6302 7.1522 -7.2612 0
M  V30 73 Ba 0.7046 -5.0653 7.8132 0
M  V30 74 Ga 0.8994 -6.5212 7.8589 0
M  V30 75 Ba 1.0792 -7.9717 7.7100 0
M  V30 76 Ba 2.7486 2.1334 -0.4048 0
M  V30 77 Ga 2.0345 1.9586 0.8684 0
M  V30 78 Ba 1.2676 1.8504 2.1182 0
M  V30 79 Ba -1.1825 5.6973 -9.7249 0
M  V30 80 Ga -2.6053 5.5644 -9.3714 0
M  V30 81 Ba -3.9683 5.4540 -8.8262 0
M  V30 82 Ba -1.2458 -0.6026 -2.2163 0
M  V30 83 Ga -2.3228 0.3241 -1.7450 0
M  V30 84 Ba -3.4594 1.2340 -1.3964 0
M  V30 85 Ba -1.0349 -5.2106 6.2314 0
M  V30 86 Ga -0.8131 -6.6611 6.0444 0
M  V30 87 Ba -0.4281 -8.0802 5.8845 0
M  V30 88 Ba 3.4742 -7.0775 3.0593 0
M  V30 89 Ga 2.5485 -8.0456 3.6885 0
M  V30 90 Ba 1.6285 -8.9210 4.4483 0
M  V30 91 Ba 2.2802 4.4904 -0.4302 0
M  V30 92 Ga 1.4815 4.3694 0.8092 0
M  V30 93 Ba 0.6696 4.1802 2.0313 0
M  V30 94 Ba 4.5068 -6.6377 5.1293 0
M  V30 95 Ga 3.7831 -7.7079 5.8287 0
M  V30 96 Ba 2.9051 -8.7165 6.4356 0
M  V30 97 Ba -1.6451 3.5660 2.9789 0
M  V30 98 Ga -2.9111 3.4793 2.2272 0
M  V30 99 Ba -4.0902 3.2817 1.3638 0
M  V30 END ATOM
M  V30 BEGIN BOND
M  V30 1 1 1 2
M  V30 2 1 1 3
M  V30 3 1 1 4
M  V30 4 1 1 5
M  V30 5 1 6 7
M  V30 6 1 6 8
M  V30 7 1 6 9
M  V30 8 1 6 10
M  V30 9 1 11 12
M  V30 10 1 11 13
M  V30 11 1 11 14
M  V30 12 1 11 15
M  V30 13 1 16 17
M  V30 14 1 16 18
M  V30 15 1 16 19
M  V30 16 1 16 20
M  V30 17 1 21 22
M  V30 18 1 21 23
M  V30 19 1 21 24
M  V30 20 1 21 25
M  V30 21 1 26 27
M  V30 22 1 26 28
M  V30 23 1 26 29
M  V30 24 1 26 30
M  V30 25 1 31 32
M  V30 26 1 31 33
M  V30 27 1 31 34
M  V30 28 1 31 35
M  V30 29 1 36 37
M  V30 30 1 36 38
M  V30 31 1 36 39
M  V30 32 1 36 40
M  V30 33 1 41 42
M  V30 34 1 41 43
M  V30 35 1 41 44
M  V30 36 1 41 45
M  V30 37 1 46 47
M  V30 38 1 47 48
M  V30 39 1 49 50
M  V30 40 1 50 51
M  V30 41 1 52 53
M  V30 42 1 53 54
M  V30 43 1 55 56
M  V30 44 1 56 57
M  V30 45 1 58 59
M  V30 46 1 59 60
M  V30 47 1 61 62
M  V30 48 1 62 63
M  V30 49 1 64 65
M  V30 50 1 65 66
M  V30 51 1 67 68
M  V30 52 1 68 69
M  V30 53 1 70 71
M  V30 54 1 71 72
M  V30 55 1 73 74
M  V30 56 1 74 75
M  V30 57 1 76 77
M  V30 58 1 77 78
M  V30 59 1 79 80
M  V30 60 1 80 81
M  V30 61 1 82 83
M  V30 62 1 83 84
M  V30 63 1 85 86
M  V30 64 1 86 87
M  V30 65 1 88 89
M  V30 66 1 89 90
M  V30 67 1 91 92
M  V30 68 1 92 93
M  V30 69 1 94 95
M  V30 70 1 95 96
M  V30 71 1 97 98
M  V30 72 1 98 99
M  V30 73 1 2 55
M  V30 74 1 3 70
M  V30 75 1 4 52
M  V30 76 1 5 79
M  V30 77 1 7 49
M  V30 78 1 8 64
M  V30 79 1 9 82
M  V30 80 1 10 61
M  V30 81 1 12 58
M  V30 82 1 13 67
M  V30 83 1 14 73
M  V30 84 1 15 85
M  V30 85 1 17 69
M  V30 86 1 18 94
M  V30 87 1 19 63
M  V30 88 1 20 88
M  V30 89 1 22 76
M  V30 90 1 23 66
M  V30 91 1 24 57
M  V30 92 1 25 91
M  V30 93 1 27 54
M  V30 94 1 28 46
M  V30 95 1 29 72
M  V30 96 1 30 81
M  V30 97 1 32 93
M  V30 98 1 33 97
M  V30 99 1 34 78
M  V30 100 1 35 60
M  V30 101 1 37 96
M  V30 102 1 38 75
M  V30 103 1 39 87
M  V30 104 1 40 90
M  V30 105 1 42 84
M  V30 106 1 43 48
M  V30 107 1 44 99
M  V30 108 1 45 51
M  V30 END BOND
M  V30 END CTAB
M  END

$$$$
