
     RDKit          3D

  0  0  0  0  0  0  0  0  0  0999 V3000
M  V30 BEGIN CTAB
M  V30 COUNTS 99 108 0 0 0
M  V30 BEGIN ATOM
M  V30 1 Pd 4.5371 -1.2858 1.4710 0
M  V30 2 Pb 4.5858 -0.2952 1.3252 0
M  V30 3 Pb 5.0835 -1.4239 0.6458 0
M  V30 4 Pb 4.0651 -1.1746 2.3481 0
M  V30 5 Pb 4.4806 -2.2800 1.5781 0
M  V30 6 Pd -0.3924 -3.7241 -5.5258 0
M  V30 7 Pb -0.6117 -2.8946 -5.0098 0
M  V30 8 Pb -0.0941 -4.5333 -6.0237 0
M  V30 9 Pb -0.7557 -4.3464 -4.8336 0
M  V30 10 Pb 0.1865 -3.1835 -6.1357 0
M  V30 11 Pd -3.1065 6.4452 -0.7924 0
M  V30 12 Pb -2.6871 7.0207 -0.0906 0
M  V30 13 Pb -3.5086 5.8275 -1.4681 0
M  V30 14 Pb -3.9718 6.4268 -0.2896 0
M  V30 15 Pb -2.2259 6.4233 -1.2687 0
M  V30 16 Pd -6.6015 2.4010 4.3470 0
M  V30 17 Pb -6.8403 3.1885 3.7796 0
M  V30 18 Pb -6.1846 3.0036 5.0245 0
M  V30 19 Pb -6.9191 1.7754 3.6360 0
M  V30 20 Pb -6.2356 1.6360 4.8777 0
M  V30 21 Pd -3.8410 -0.7860 -1.8207 0
M  V30 22 Pb -3.0160 -0.7645 -2.3845 0
M  V30 23 Pb -4.1780 0.0161 -2.3109 0
M  V30 24 Pb -4.6573 -0.7748 -1.2431 0
M  V30 25 Pb -3.4345 -1.5079 -1.2631 0
M  V30 26 Pd -0.1360 1.8346 7.0054 0
M  V30 27 Pb -0.8321 2.5212 7.2080 0
M  V30 28 Pb 0.5373 2.5547 6.8509 0
M  V30 29 Pb 0.5309 1.1416 6.7311 0
M  V30 30 Pb -0.8666 1.1540 7.0644 0
M  V30 31 Pd 1.6563 6.0279 1.2290 0
M  V30 32 Pb 2.3797 5.3655 1.0264 0
M  V30 33 Pb 1.8891 5.9408 2.1968 0
M  V30 34 Pb 1.3964 6.0910 0.2643 0
M  V30 35 Pb 0.9273 6.6794 1.4434 0
M  V30 36 Pd 2.0143 -5.6502 -1.0334 0
M  V30 37 Pb 1.2635 -5.1855 -0.5671 0
M  V30 38 Pb 2.7647 -6.1641 -1.4689 0
M  V30 39 Pb 1.3105 -5.8922 -1.7117 0
M  V30 40 Pb 2.6530 -5.4200 -0.2942 0
M  V30 41 Pd 5.7872 -5.2401 -4.9505 0
M  V30 42 Pb 5.2759 -5.8645 -5.5331 0
M  V30 43 Pb 6.2059 -4.5690 -4.3424 0
M  V30 44 Pb 5.7327 -5.9146 -4.2147 0
M  V30 45 Pb 5.6193 -4.5268 -5.6310 0
M  V30 46 Ag 4.6401 0.4383 1.1661 0
M  V30 47 Fe 3.7617 2.6444 1.0501 0
M  V30 48 Ag 2.9317 4.8680 0.9138 0
M  V30 49 Ag -3.0754 -1.9965 -0.8235 0
M  V30 50 Fe -1.2240 -3.4480 -0.5066 0
M  V30 51 Ag 0.6513 -4.8822 -0.2605 0
M  V30 52 Ag -7.0848 1.2993 3.0821 0
M  V30 53 Fe -6.2491 0.2409 1.1279 0
M  V30 54 Ag -5.2612 -0.7302 -0.8006 0
M  V30 55 Ag -5.7761 3.3853 5.5210 0
M  V30 56 Fe -3.6251 3.3473 6.5203 0
M  V30 57 Ag -1.4123 2.9856 7.2947 0
M  V30 58 Ag 0.7634 -2.8870 -6.5112 0
M  V30 59 Fe 3.1114 -3.2402 -6.5172 0
M  V30 60 Ag 5.3139 -4.0161 -6.0872 0
M  V30 61 Ag 0.2532 -5.1093 -6.3417 0
M  V30 62 Fe 2.4621 -5.9528 -6.3510 0
M  V30 63 Ag 4.7720 -6.2364 -5.9337 0
M  V30 64 Ag -5.8562 1.1238 5.2737 0
M  V30 65 Fe -3.7143 0.7540 6.2320 0
M  V30 66 Ag -1.4844 0.7285 7.0503 0
M  V30 67 Ag -4.6158 6.3654 0.0918 0
M  V30 68 Fe -5.8536 5.1360 1.7042 0
M  V30 69 Ag -6.9302 3.7852 3.3347 0
M  V30 70 Ag 3.7603 -1.1427 3.0352 0
M  V30 71 Fe 2.3793 -0.2291 4.7398 0
M  V30 72 Ag 1.0215 0.6266 6.4926 0
M  V30 73 Ag 5.5295 -1.5541 0.0577 0
M  V30 74 Fe 6.0272 -2.7749 -1.9159 0
M  V30 75 Ag 6.4549 -4.0359 -3.8806 0
M  V30 76 Ag 0.9943 3.1146 6.6589 0
M  V30 77 Fe 1.6044 4.5285 4.8535 0
M  V30 78 Ag 2.0541 5.8263 2.9183 0
M  V30 79 Ag -3.8125 5.3265 -1.9358 0
M  V30 80 Fe -4.1553 3.0199 -2.3807 0
M  V30 81 Ag -4.3696 0.6683 -2.6243 0
M  V30 82 Ba -0.6962 -2.2352 -4.6596 0
M  V30 83 Ga -1.5869 -1.5256 -3.7216 0
M  V30 84 Ba -2.3919 -0.7064 -2.7952 0
M  V30 85 Ba -1.5485 6.3980 -1.5928 0
M  V30 86 Ga -0.1813 6.2728 -1.0481 0
M  V30 87 Ba 1.1619 6.1460 -0.4473 0
M  V30 88 Ba -2.3377 7.4237 0.4365 0
M  V30 89 Ga -0.9904 7.3170 1.0287 0
M  V30 90 Ba 0.3681 7.1607 1.5833 0
M  V30 91 Ba -0.8996 -4.8971 -4.3431 0
M  V30 92 Ga -0.1054 -5.4593 -3.2245 0
M  V30 93 Ba 0.6815 -6.0381 -2.1093 0
M  V30 94 Ba 4.4478 -3.0275 1.6481 0
M  V30 95 Ga 3.7721 -4.1378 0.9435 0
M  V30 96 Ba 3.1239 -5.2884 0.2791 0
M  V30 97 Ba 3.3644 -6.5638 -1.7063 0
M  V30 98 Ga 4.4687 -6.4783 -2.6914 0
M  V30 99 Ba 5.5771 -6.4114 -3.6734 0
M  V30 END ATOM
M  V30 BEGIN BOND
M  V30 1 1 1 2
M  V30 2 1 1 3
M  V30 3 1 1 4
M  V30 4 1 1 5
M  V30 5 1 6 7
M  V30 6 1 6 8
M  V30 7 1 6 9
M  V30 8 1 6 10
M  V30 9 1 11 12
M  V30 10 1 11 13
M  V30 11 1 11 14
M  V30 12 1 11 15
M  V30 13 1 16 17
M  V30 14 1 16 18
M  V30 15 1 16 19
M  V30 16 1 16 20
M  V30 17 1 21 22
M  V30 18 1 21 23
M  V30 19 1 21 24
M  V30 20 1 21 25
M  V30 21 1 26 27
M  V30 22 1 26 28
M  V30 23 1 26 29
M  V30 24 1 26 30
M  V30 25 1 31 32
M  V30 26 1 31 33
M  V30 27 1 31 34
M  V30 28 1 31 35
M  V30 29 1 36 37
M  V30 30 1 36 38
M  V30 31 1 36 39
M  V30 32 1 36 40
M  V30 33 1 41 42
M  V30 34 1 41 43
M  V30 35 1 41 44
M  V30 36 1 41 45
M  V30 37 1 46 47
M  V30 38 1 47 48
M  V30 39 1 49 50
M  V30 40 1 50 51
M  V30 41 1 52 53
M  V30 42 1 53 54
M  V30 43 1 55 56
M  V30 44 1 56 57
M  V30 45 1 58 59
M  V30 46 1 59 60
M  V30 47 1 61 62
M  V30 48 1 62 63
M  V30 49 1 64 65
M  V30 50 1 65 66
M  V30 51 1 67 68
M  V30 52 1 68 69
M  V30 53 1 70 71
M  V30 54 1 71 72
M  V30 55 1 73 74
M  V30 56 1 74 75
M  V30 57 1 76 77
M  V30 58 1 77 78
M  V30 59 1 79 80
M  V30 60 1 80 81
M  V30 61 1 82 83
M  V30 62 1 83 84
M  V30 63 1 85 86
M  V30 64 1 86 87
M  V30 65 1 88 89
M  V30 66 1 89 90
M  V30 67 1 91 92
M  V30 68 1 92 93
M  V30 69 1 94 95
M  V30 70 1 95 96
M  V30 71 1 97 98
M  V30 72 1 98 99
M  V30 73 1 2 46
M  V30 74 1 3 73
M  V30 75 1 4 70
M  V30 76 1 5 94
M  V30 77 1 7 82
M  V30 78 1 8 61
M  V30 79 1 9 91
M  V30 80 1 10 58
M  V30 81 1 12 88
M  V30 82 1 13 79
M  V30 83 1 14 67
M  V30 84 1 15 85
M  V30 85 1 17 69
M  V30 86 1 18 55
M  V30 87 1 19 52
M  V30 88 1 20 64
M  V30 89 1 22 84
M  V30 90 1 23 81
M  V30 91 1 24 54
M  V30 92 1 25 49
M  V30 93 1 27 57
M  V30 94 1 28 76
M  V30 95 1 29 72
M  V30 96 1 30 66
M  V30 97 1 32 48
M  V30 98 1 33 78
M  V30 99 1 34 87
M  V30 100 1 35 90
M  V30 101 1 37 51
M  V30 102 1 38 97
M  V30 103 1 39 93
M  V30 104 1 40 96
M  V30 105 1 42 63
M  V30 106 1 43 75
M  V30 107 1 44 99
M  V30 108 1 45 60
M  V30 END BOND
M  V30 END CTAB
M  END

$$$$
