
     RDKit          3D

  0  0  0  0  0  0  0  0  0  0999 V3000
M  V30 BEGIN CTAB
M  V30 COUNTS 99 108 0 0 0
M  V30 BEGIN ATOM
M  V30 1 Pd -0.8657 5.9676 3.1350 0
M  V30 2 Pb -1.8015 5.7574 3.4114 0
M  V30 3 Pb 0.0659 6.2163 2.9067 0
M  V30 4 Pb -1.0755 5.8129 2.1449 0
M  V30 5 Pb -0.6520 6.0419 4.1077 0
M  V30 6 Pd 5.2386 -1.4342 -4.9336 0
M  V30 7 Pb 5.1686 -2.4226 -4.8281 0
M  V30 8 Pb 4.5819 -1.4854 -5.6797 0
M  V30 9 Pb 5.1774 -0.4402 -4.9925 0
M  V30 10 Pb 5.8136 -1.3988 -4.1182 0
M  V30 11 Pd -4.4910 -2.7945 -0.6371 0
M  V30 12 Pb -4.9075 -1.9301 -0.8761 0
M  V30 13 Pb -4.7559 -3.1074 -1.5444 0
M  V30 14 Pb -4.2344 -2.4443 0.2881 0
M  V30 15 Pb -4.0826 -3.6856 -0.4341 0
M  V30 16 Pd -3.9282 1.5577 3.6839 0
M  V30 17 Pb -4.4100 1.8526 2.8722 0
M  V30 18 Pb -4.0217 2.4967 4.0036 0
M  V30 19 Pb -3.8442 0.6065 3.3198 0
M  V30 20 Pb -3.4536 1.2912 4.5248 0
M  V30 21 Pd 4.4903 -1.3124 2.5961 0
M  V30 22 Pb 3.8495 -1.1684 3.3747 0
M  V30 23 Pb 4.0152 -2.1652 2.3687 0
M  V30 24 Pb 4.9658 -0.4736 2.8305 0
M  V30 25 Pb 5.1165 -1.4193 1.8235 0
M  V30 26 Pd 0.0530 -5.8478 -2.0050 0
M  V30 27 Pb 0.5469 -5.7013 -1.1461 0
M  V30 28 Pb -0.4190 -5.9750 -2.8808 0
M  V30 29 Pb 0.9264 -5.8388 -2.4904 0
M  V30 30 Pb -0.8092 -5.8922 -1.4956 0
M  V30 31 Pd 0.6536 4.0980 -2.4931 0
M  V30 32 Pb -0.0592 3.5787 -2.9776 0
M  V30 33 Pb 1.3718 4.6065 -2.0378 0
M  V30 34 Pb -0.0247 4.4498 -1.8122 0
M  V30 35 Pb 1.3601 3.7853 -3.1289 0
M  V30 36 Pd 1.0495 2.2495 6.1348 0
M  V30 37 Pb 0.1607 1.8265 6.3212 0
M  V30 38 Pb 0.7029 3.1529 6.3886 0
M  V30 39 Pb 1.9320 2.6670 5.9566 0
M  V30 40 Pb 1.4225 1.3420 5.8610 0
M  V30 41 Pd -2.1584 -2.5152 -5.5388 0
M  V30 42 Pb -3.0451 -2.7386 -5.1390 0
M  V30 43 Pb -1.2974 -2.3276 -6.0064 0
M  V30 44 Pb -2.2925 -1.5296 -5.3958 0
M  V30 45 Pb -1.9922 -3.5004 -5.5965 0
M  V30 46 Ag 5.0141 -3.1440 -4.7149 0
M  V30 47 Fe 3.3560 -4.5734 -3.8008 0
M  V30 48 Ag 1.5896 -5.8317 -2.8389 0
M  V30 49 Ag 0.7349 6.3590 2.6311 0
M  V30 50 Fe 1.7305 5.8688 0.5580 0
M  V30 51 Ag 1.8468 4.9833 -1.6174 0
M  V30 52 Ag 3.6515 -2.8079 2.2252 0
M  V30 53 Fe 2.2916 -4.1844 0.8444 0
M  V30 54 Ag 0.9335 -5.5870 -0.5118 0
M  V30 55 Ag 5.2166 0.1791 3.0701 0
M  V30 56 Fe 4.2628 1.8496 4.4271 0
M  V30 57 Ag 2.6120 2.8754 5.7554 0
M  V30 58 Ag 4.0260 -1.5276 -6.1739 0
M  V30 59 Fe 1.6854 -1.8563 -6.3571 0
M  V30 60 Ag -0.6605 -2.1989 -6.3765 0
M  V30 61 Ag -5.1874 -1.2570 -0.9769 0
M  V30 62 Fe -5.2210 0.6867 0.3405 0
M  V30 63 Ag -4.7581 1.9898 2.2385 0
M  V30 64 Ag 5.0184 0.2893 -5.0406 0
M  V30 65 Fe 3.5102 1.9779 -4.3246 0
M  V30 66 Ag 1.9478 3.5920 -3.5546 0
M  V30 67 Ag 6.1823 -1.4162 -3.4670 0
M  V30 68 Fe 5.9481 -1.4351 -1.1043 0
M  V30 69 Ag 5.5912 -1.4494 1.2432 0
M  V30 70 Ag -0.5951 3.1998 -3.3534 0
M  V30 71 Fe -1.4750 1.2019 -4.3049 0
M  V30 72 Ag -2.3642 -0.7904 -5.2597 0
M  V30 73 Ba -1.2860 5.6904 1.4113 0
M  V30 74 Ga -0.8262 5.1927 0.0711 0
M  V30 75 Ba -0.5600 4.7383 -1.3353 0
M  V30 76 Ba -0.5152 6.0357 4.8439 0
M  V30 77 Ga -0.0208 4.9656 5.7295 0
M  V30 78 Ba 0.4785 3.8496 6.5538 0
M  V30 79 Ba 3.3664 -1.1134 3.9688 0
M  V30 80 Ga 2.5500 -0.1576 4.7798 0
M  V30 81 Ba 1.6760 0.6354 5.6991 0
M  V30 82 Ba -4.9683 -3.2842 -2.2370 0
M  V30 83 Ga -4.3364 -3.1301 -3.5564 0
M  V30 84 Ba -3.7049 -2.9742 -4.8758 0
M  V30 85 Ba -4.0243 -2.2394 1.0011 0
M  V30 86 Ga -3.9325 -1.1073 1.9798 0
M  V30 87 Ba -3.7547 -0.1272 3.1004 0
M  V30 88 Ba -0.7382 -6.0649 -3.5570 0
M  V30 89 Ga -1.3129 -5.1623 -4.5768 0
M  V30 90 Ba -1.8844 -4.2435 -5.5837 0
M  V30 91 Ba -3.7967 -4.3664 -0.2966 0
M  V30 92 Ga -2.6039 -5.1355 -0.7068 0
M  V30 93 Ba -1.4334 -5.9560 -1.0801 0
M  V30 94 Ba -2.4811 5.6201 3.6939 0
M  V30 95 Ga -3.3007 4.4221 3.9374 0
M  V30 96 Ba -4.1129 3.2178 4.1745 0
M  V30 97 Ba -3.1153 1.0957 5.1669 0
M  V30 98 Ga -1.7970 1.3066 5.7995 0
M  V30 99 Ba -0.4948 1.4907 6.4723 0
M  V30 END ATOM
M  V30 BEGIN BOND
M  V30 1 1 1 2
M  V30 2 1 1 3
M  V30 3 1 1 4
M  V30 4 1 1 5
M  V30 5 1 6 7
M  V30 6 1 6 8
M  V30 7 1 6 9
M  V30 8 1 6 10
M  V30 9 1 11 12
M  V30 10 1 11 13
M  V30 11 1 11 14
M  V30 12 1 11 15
M  V30 13 1 16 17
M  V30 14 1 16 18
M  V30 15 1 16 19
M  V30 16 1 16 20
M  V30 17 1 21 22
M  V30 18 1 21 23
M  V30 19 1 21 24
M  V30 20 1 21 25
M  V30 21 1 26 27
M  V30 22 1 26 28
M  V30 23 1 26 29
M  V30 24 1 26 30
M  V30 25 1 31 32
M  V30 26 1 31 33
M  V30 27 1 31 34
M  V30 28 1 31 35
M  V30 29 1 36 37
M  V30 30 1 36 38
M  V30 31 1 36 39
M  V30 32 1 36 40
M  V30 33 1 41 42
M  V30 34 1 41 43
M  V30 35 1 41 44
M  V30 36 1 41 45
M  V30 37 1 46 47
M  V30 38 1 47 48
M  V30 39 1 49 50
M  V30 40 1 50 51
M  V30 41 1 52 53
M  V30 42 1 53 54
M  V30 43 1 55 56
M  V30 44 1 56 57
M  V30 45 1 58 59
M  V30 46 1 59 60
M  V30 47 1 61 62
M  V30 48 1 62 63
M  V30 49 1 64 65
M  V30 50 1 65 66
M  V30 51 1 67 68
M  V30 52 1 68 69
M  V30 53 1 70 71
M  V30 54 1 71 72
M  V30 55 1 73 74
M  V30 56 1 74 75
M  V30 57 1 76 77
M  V30 58 1 77 78
M  V30 59 1 79 80
M  V30 60 1 80 81
M  V30 61 1 82 83
M  V30 62 1 83 84
M  V30 63 1 85 86
M  V30 64 1 86 87
M  V30 65 1 88 89
M  V30 66 1 89 90
M  V30 67 1 91 92
M  V30 68 1 92 93
M  V30 69 1 94 95
M  V30 70 1 95 96
M  V30 71 1 97 98
M  V30 72 1 98 99
M  V30 73 1 2 94
M  V30 74 1 3 49
M  V30 75 1 4 73
M  V30 76 1 5 76
M  V30 77 1 7 46
M  V30 78 1 8 58
M  V30 79 1 9 64
M  V30 80 1 10 67
M  V30 81 1 12 61
M  V30 82 1 13 82
M  V30 83 1 14 85
M  V30 84 1 15 91
M  V30 85 1 17 63
M  V30 86 1 18 96
M  V30 87 1 19 87
M  V30 88 1 20 97
M  V30 89 1 22 79
M  V30 90 1 23 52
M  V30 91 1 24 55
M  V30 92 1 25 69
M  V30 93 1 27 54
M  V30 94 1 28 88
M  V30 95 1 29 48
M  V30 96 1 30 93
M  V30 97 1 32 70
M  V30 98 1 33 51
M  V30 99 1 34 75
M  V30 100 1 35 66
M  V30 101 1 37 99
M  V30 102 1 38 78
M  V30 103 1 39 57
M  V30 104 1 40 81
M  V30 105 1 42 84
M  V30 106 1 43 60
M  V30 107 1 44 72
M  V30 108 1 45 90
M  V30 END BOND
M  V30 END CTAB
M  END

$$$$
