
     RDKit          3D

  0  0  0  0  0  0  0  0  0  0999 V3000
M  V30 BEGIN CTAB
M  V30 COUNTS 99 108 0 0 0
M  V30 BEGIN ATOM
M  V30 1 Pd -3.7214 -4.0351 1.1033 0
M  V30 2 Pb -3.6684 -3.5199 0.2432 0
M  V30 3 Pb -4.0050 -4.8655 0.6155 0
M  V30 4 Pb -3.7864 -4.5463 1.9588 0
M  V30 5 Pb -3.4782 -3.2241 1.6343 0
M  V30 6 Pd -2.2413 -8.7769 1.9389 0
M  V30 7 Pb -1.7853 -9.3180 1.2374 0
M  V30 8 Pb -2.6749 -8.1974 2.6247 0
M  V30 9 Pb -2.9962 -8.5749 1.3160 0
M  V30 10 Pb -1.4010 -8.8179 2.5004 0
M  V30 11 Pd 3.2041 2.9823 -3.7490 0
M  V30 12 Pb 2.8289 3.6919 -4.3519 0
M  V30 13 Pb 3.5424 2.2844 -3.1208 0
M  V30 14 Pb 3.6534 3.6722 -3.1814 0
M  V30 15 Pb 2.7872 2.2572 -4.2996 0
M  V30 16 Pd 2.5352 7.3597 2.3053 0
M  V30 17 Pb 2.6029 6.5086 2.8243 0
M  V30 18 Pb 2.3362 8.0976 1.6674 0
M  V30 19 Pb 1.7161 7.5852 2.8264 0
M  V30 20 Pb 3.2732 7.0767 1.6963 0
M  V30 21 Pd -0.6272 -1.1764 -3.2728 0
M  V30 22 Pb -1.2659 -0.5646 -3.7309 0
M  V30 23 Pb 0.0713 -1.7029 -2.7875 0
M  V30 24 Pb 0.0910 -0.8026 -3.8653 0
M  V30 25 Pb -1.4050 -1.5507 -2.7541 0
M  V30 26 Pd 2.5536 -6.0510 1.8363 0
M  V30 27 Pb 2.6948 -6.7520 1.1424 0
M  V30 28 Pb 2.4062 -5.3442 2.5306 0
M  V30 29 Pb 2.1517 -6.7587 2.4379 0
M  V30 30 Pb 2.8077 -5.3525 1.1727 0
M  V30 31 Pd -1.1511 6.1195 -3.5176 0
M  V30 32 Pb -1.5899 5.3141 -3.9104 0
M  V30 33 Pb -1.8456 6.1223 -2.7940 0
M  V30 34 Pb -0.4155 6.0518 -4.1956 0
M  V30 35 Pb -0.7167 6.9252 -3.1163 0
M  V30 36 Pd 0.6410 -0.8910 1.9332 0
M  V30 37 Pb 0.2678 -0.2417 1.2674 0
M  V30 38 Pb 1.5227 -0.8207 1.4723 0
M  V30 39 Pb -0.2598 -0.9478 2.3574 0
M  V30 40 Pb 1.0117 -1.5478 2.5929 0
M  V30 41 Pd -1.0874 4.4479 1.6097 0
M  V30 42 Pb -1.1825 5.2565 2.1907 0
M  V30 43 Pb -0.3229 4.1612 2.1930 0
M  V30 44 Pb -1.8064 4.7959 1.0020 0
M  V30 45 Pb -0.9835 3.6365 1.0310 0
M  V30 46 Ag 4.0073 4.1482 -2.7221 0
M  V30 47 Fe 3.9572 5.5200 -0.7852 0
M  V30 48 Ag 3.7535 6.8529 1.1686 0
M  V30 49 Ag 0.6648 -2.0146 -2.4491 0
M  V30 50 Fe 1.7855 -3.4265 -0.9040 0
M  V30 51 Ag 2.9074 -4.8415 0.6373 0
M  V30 52 Ag -1.3041 -9.5953 0.7466 0
M  V30 53 Fe 0.8708 -8.8162 0.2912 0
M  V30 54 Ag 2.6505 -7.3203 0.6673 0
M  V30 55 Ag -1.6831 -0.0332 -4.0465 0
M  V30 56 Fe -1.9008 2.3230 -4.1923 0
M  V30 57 Ag -1.9113 4.6937 -4.1763 0
M  V30 58 Ag 2.1093 8.5245 1.1003 0
M  V30 59 Fe 0.8758 8.2086 -0.8999 0
M  V30 60 Ag -0.3827 7.5077 -2.7839 0
M  V30 61 Ag 3.7535 1.7704 -2.6202 0
M  V30 62 Fe 3.0623 0.4685 -0.7621 0
M  V30 63 Ag 2.1461 -0.7239 1.0721 0
M  V30 64 Ba -0.0097 0.2306 0.7523 0
M  V30 65 Ga -0.4559 1.6382 0.6957 0
M  V30 66 Ba -0.9147 3.0381 0.5808 0
M  V30 67 Ba -0.7547 -8.8040 2.9043 0
M  V30 68 Ga 0.5278 -8.0428 2.8667 0
M  V30 69 Ba 1.8225 -7.3016 2.8605 0
M  V30 70 Ba -4.2386 -5.5090 0.2995 0
M  V30 71 Ga -3.9088 -6.9309 0.5348 0
M  V30 72 Ba -3.5144 -8.3235 0.8356 0
M  V30 73 Ba -2.3576 6.0830 -2.2431 0
M  V30 74 Ga -2.3450 5.5867 -0.8490 0
M  V30 75 Ba -2.3288 5.0893 0.5447 0
M  V30 76 Ba 1.0507 7.6766 3.1521 0
M  V30 77 Ga -0.1301 6.8212 2.9520 0
M  V30 78 Ba -1.2002 5.8619 2.6332 0
M  V30 79 Ba -3.8320 -4.9494 2.5879 0
M  V30 80 Ga -3.4317 -6.3311 2.8975 0
M  V30 81 Ba -2.9960 -7.7214 3.1024 0
M  V30 82 Ba -3.3153 -2.6419 2.0777 0
M  V30 83 Ga -2.1328 -1.8093 2.3570 0
M  V30 84 Ba -0.9521 -0.9743 2.6377 0
M  V30 85 Ba 2.5389 4.2287 -4.7950 0
M  V30 86 Ga 1.3458 5.1027 -4.7445 0
M  V30 87 Ba 0.1502 5.9729 -4.6860 0
M  V30 88 Ba 2.3007 -4.8121 3.0509 0
M  V30 89 Ga 1.7904 -3.4256 3.0600 0
M  V30 90 Ba 1.2842 -2.0381 3.0937 0
M  V30 91 Ba 2.5136 1.6843 -4.7017 0
M  V30 92 Ga 1.5400 0.5908 -4.4978 0
M  V30 93 Ba 0.5835 -0.5284 -4.3652 0
M  V30 94 Ba -3.6810 -3.1363 -0.4054 0
M  V30 95 Ga -2.7828 -2.4800 -1.3840 0
M  V30 96 Ba -2.0725 -1.7731 -2.4747 0
M  V30 97 Ba 2.5442 5.8320 3.1420 0
M  V30 98 Ga 1.4448 4.8653 2.9400 0
M  V30 99 Ba 0.2734 4.0187 2.6309 0
M  V30 END ATOM
M  V30 BEGIN BOND
M  V30 1 1 1 2
M  V30 2 1 1 3
M  V30 3 1 1 4
M  V30 4 1 1 5
M  V30 5 1 6 7
M  V30 6 1 6 8
M  V30 7 1 6 9
M  V30 8 1 6 10
M  V30 9 1 11 12
M  V30 10 1 11 13
M  V30 11 1 11 14
M  V30 12 1 11 15
M  V30 13 1 16 17
M  V30 14 1 16 18
M  V30 15 1 16 19
M  V30 16 1 16 20
M  V30 17 1 21 22
M  V30 18 1 21 23
M  V30 19 1 21 24
M  V30 20 1 21 25
M  V30 21 1 26 27
M  V30 22 1 26 28
M  V30 23 1 26 29
M  V30 24 1 26 30
M  V30 25 1 31 32
M  V30 26 1 31 33
M  V30 27 1 31 34
M  V30 28 1 31 35
M  V30 29 1 36 37
M  V30 30 1 36 38
M  V30 31 1 36 39
M  V30 32 1 36 40
M  V30 33 1 41 42
M  V30 34 1 41 43
M  V30 35 1 41 44
M  V30 36 1 41 45
M  V30 37 1 46 47
M  V30 38 1 47 48
M  V30 39 1 49 50
M  V30 40 1 50 51
M  V30 41 1 52 53
M  V30 42 1 53 54
M  V30 43 1 55 56
M  V30 44 1 56 57
M  V30 45 1 58 59
M  V30 46 1 59 60
M  V30 47 1 61 62
M  V30 48 1 62 63
M  V30 49 1 64 65
M  V30 50 1 65 66
M  V30 51 1 67 68
M  V30 52 1 68 69
M  V30 53 1 70 71
M  V30 54 1 71 72
M  V30 55 1 73 74
M  V30 56 1 74 75
M  V30 57 1 76 77
M  V30 58 1 77 78
M  V30 59 1 79 80
M  V30 60 1 80 81
M  V30 61 1 82 83
M  V30 62 1 83 84
M  V30 63 1 85 86
M  V30 64 1 86 87
M  V30 65 1 88 89
M  V30 66 1 89 90
M  V30 67 1 91 92
M  V30 68 1 92 93
M  V30 69 1 94 95
M  V30 70 1 95 96
M  V30 71 1 97 98
M  V30 72 1 98 99
M  V30 73 1 2 94
M  V30 74 1 3 70
M  V30 75 1 4 79
M  V30 76 1 5 82
M  V30 77 1 7 52
M  V30 78 1 8 81
M  V30 79 1 9 72
M  V30 80 1 10 67
M  V30 81 1 12 85
M  V30 82 1 13 61
M  V30 83 1 14 46
M  V30 84 1 15 91
M  V30 85 1 17 97
M  V30 86 1 18 58
M  V30 87 1 19 76
M  V30 88 1 20 48
M  V30 89 1 22 55
M  V30 90 1 23 49
M  V30 91 1 24 93
M  V30 92 1 25 96
M  V30 93 1 27 54
M  V30 94 1 28 88
M  V30 95 1 29 69
M  V30 96 1 30 51
M  V30 97 1 32 57
M  V30 98 1 33 73
M  V30 99 1 34 87
M  V30 100 1 35 60
M  V30 101 1 37 64
M  V30 102 1 38 63
M  V30 103 1 39 84
M  V30 104 1 40 90
M  V30 105 1 42 78
M  V30 106 1 43 99
M  V30 107 1 44 75
M  V30 108 1 45 66
M  V30 END BOND
M  V30 END CTAB
M  END

$$$$
