
     RDKit          3D

  0  0  0  0  0  0  0  0  0  0999 V3000
M  V30 BEGIN CTAB
M  V30 COUNTS 99 108 0 0 0
M  V30 BEGIN ATOM
M  V30 1 Pd -3.1444 0.4870 -4.6114 0
M  V30 2 Pb -3.1119 -0.5044 -4.7427 0
M  V30 3 Pb -3.2073 1.4792 -4.5178 0
M  V30 4 Pb -2.3074 0.5896 -5.1496 0
M  V30 5 Pb -3.9502 0.3907 -4.0258 0
M  V30 6 Pd -0.4686 4.8150 2.4016 0
M  V30 7 Pb 0.1033 4.1854 1.8771 0
M  V30 8 Pb -1.0742 5.4345 2.8962 0
M  V30 9 Pb -0.8704 4.0459 2.8957 0
M  V30 10 Pb -0.1828 5.5866 1.8332 0
M  V30 11 Pd 1.1886 -5.5557 3.7771 0
M  V30 12 Pb 1.6518 -6.1517 3.1219 0
M  V30 13 Pb 0.7222 -4.8892 4.3590 0
M  V30 14 Pb 2.0634 -5.2788 4.1701 0
M  V30 15 Pb 0.3371 -5.7939 3.3104 0
M  V30 16 Pd 5.6873 -0.0973 2.4237 0
M  V30 17 Pb 5.7483 -0.8603 3.0637 0
M  V30 18 Pb 6.1698 -0.6179 1.7214 0
M  V30 19 Pb 5.1312 0.3872 3.0993 0
M  V30 20 Pb 5.5538 0.6108 1.7280 0
M  V30 21 Pd 0.5362 -0.3310 3.0375 0
M  V30 22 Pb 0.8006 0.3102 2.3180 0
M  V30 23 Pb 0.2756 -0.9699 3.7657 0
M  V30 24 Pb 1.2306 0.0939 3.6208 0
M  V30 25 Pb -0.1505 -0.7351 2.4302 0
M  V30 26 Pd 4.3517 -0.7754 -4.5615 0
M  V30 27 Pb 5.0550 -1.1913 -3.9871 0
M  V30 28 Pb 4.1809 -1.6476 -5.0192 0
M  V30 29 Pb 3.6119 -0.3611 -5.0921 0
M  V30 30 Pb 4.4718 0.0525 -4.0105 0
M  V30 31 Pd -0.0286 -6.4213 -3.1684 0
M  V30 32 Pb -0.7318 -5.9424 -3.6919 0
M  V30 33 Pb 0.6393 -6.2204 -3.8847 0
M  V30 34 Pb -0.6548 -6.5380 -2.3978 0
M  V30 35 Pb 0.6732 -6.8387 -2.5923 0
M  V30 36 Pd -4.1791 1.2862 0.7525 0
M  V30 37 Pb -3.6016 0.4687 0.7126 0
M  V30 38 Pb -4.7807 2.0899 0.7936 0
M  V30 39 Pb -3.7128 1.5347 1.6057 0
M  V30 40 Pb -4.6567 1.0008 -0.0826 0
M  V30 41 Pd -3.8499 6.6245 -0.0498 0
M  V30 42 Pb -3.8416 6.8991 0.9087 0
M  V30 43 Pb -3.8187 6.3125 -0.9970 0
M  V30 44 Pb -4.6514 6.0529 0.1234 0
M  V30 45 Pb -2.9714 7.0885 -0.1664 0
M  V30 46 Ag -3.1011 -1.2453 -4.8623 0
M  V30 47 Fe -2.1878 -3.4027 -4.4735 0
M  V30 48 Ag -1.2488 -5.5443 -4.0596 0
M  V30 49 Ag 6.4583 -0.9808 1.1340 0
M  V30 50 Fe 6.1365 -1.3192 -1.1924 0
M  V30 51 Ag 5.5501 -1.4481 -3.4879 0
M  V30 52 Ag -0.2412 -5.9772 2.8697 0
M  V30 53 Fe -0.8082 -6.3219 0.5896 0
M  V30 54 Ag -1.0437 -6.5869 -1.7585 0
M  V30 55 Ag 1.9394 -6.5513 2.5571 0
M  V30 56 Fe 1.6770 -6.9426 0.2303 0
M  V30 57 Ag 1.1502 -7.1039 -2.0788 0
M  V30 58 Ag 5.4445 1.0561 1.1321 0
M  V30 59 Fe 5.0069 0.9885 -1.2038 0
M  V30 60 Ag 4.5722 0.6040 -3.5094 0
M  V30 61 Ag 2.7226 -5.0178 4.4086 0
M  V30 62 Fe 4.3131 -3.2902 4.0737 0
M  V30 63 Ag 5.7070 -1.4537 3.5165 0
M  V30 64 Ag -1.6596 0.6689 -5.5200 0
M  V30 65 Fe 0.6898 0.3192 -5.5443 0
M  V30 66 Ag 3.0308 -0.0771 -5.4725 0
M  V30 67 Ag -3.2783 2.2220 -4.4568 0
M  V30 68 Fe -3.5251 4.1540 -3.1014 0
M  V30 69 Ag -3.7698 6.0496 -1.6952 0
M  V30 70 Ag 3.9992 -2.3186 -5.2996 0
M  V30 71 Fe 2.6215 -4.2212 -4.9524 0
M  V30 72 Ag 1.1509 -5.9972 -4.3852 0
M  V30 73 Ba 0.5069 3.6946 1.4799 0
M  V30 74 Ga 0.7714 2.2516 1.6227 0
M  V30 75 Ba 1.0127 0.8083 1.7999 0
M  V30 76 Ba -0.6559 -1.0340 1.9607 0
M  V30 77 Ga -1.9154 -0.5840 1.3331 0
M  V30 78 Ba -3.1764 -0.1509 0.6966 0
M  V30 79 Ba 4.6798 0.6923 3.6154 0
M  V30 80 Ga 3.2243 0.5866 3.8403 0
M  V30 81 Ba 1.7650 0.4448 4.0160 0
M  V30 82 Ba -0.0785 6.1743 1.3787 0
M  V30 83 Ga -1.1062 6.8390 0.5548 0
M  V30 84 Ba -2.2712 7.3573 -0.1876 0
M  V30 85 Ba -1.5710 5.9029 3.1992 0
M  V30 86 Ga -2.7034 6.5381 2.5125 0
M  V30 87 Ba -3.7593 7.0570 1.6335 0
M  V30 88 Ba -1.2362 3.4836 3.2288 0
M  V30 89 Ga -2.2916 2.5707 2.7446 0
M  V30 90 Ba -3.3483 1.6632 2.2529 0
M  V30 91 Ba -4.5437 0.3282 -3.5701 0
M  V30 92 Ga -4.7776 0.5582 -2.1290 0
M  V30 93 Ba -5.0410 0.7800 -0.6918 0
M  V30 94 Ba -5.2673 2.6671 0.7963 0
M  V30 95 Ga -5.2383 4.1235 0.5423 0
M  V30 96 Ba -5.2095 5.5802 0.2900 0
M  V30 97 Ba 0.3905 -4.3517 4.7643 0
M  V30 98 Ga 0.2249 -2.8992 4.5488 0
M  V30 99 Ba 0.0724 -1.4489 4.3104 0
M  V30 END ATOM
M  V30 BEGIN BOND
M  V30 1 1 1 2
M  V30 2 1 1 3
M  V30 3 1 1 4
M  V30 4 1 1 5
M  V30 5 1 6 7
M  V30 6 1 6 8
M  V30 7 1 6 9
M  V30 8 1 6 10
M  V30 9 1 11 12
M  V30 10 1 11 13
M  V30 11 1 11 14
M  V30 12 1 11 15
M  V30 13 1 16 17
M  V30 14 1 16 18
M  V30 15 1 16 19
M  V30 16 1 16 20
M  V30 17 1 21 22
M  V30 18 1 21 23
M  V30 19 1 21 24
M  V30 20 1 21 25
M  V30 21 1 26 27
M  V30 22 1 26 28
M  V30 23 1 26 29
M  V30 24 1 26 30
M  V30 25 1 31 32
M  V30 26 1 31 33
M  V30 27 1 31 34
M  V30 28 1 31 35
M  V30 29 1 36 37
M  V30 30 1 36 38
M  V30 31 1 36 39
M  V30 32 1 36 40
M  V30 33 1 41 42
M  V30 34 1 41 43
M  V30 35 1 41 44
M  V30 36 1 41 45
M  V30 37 1 46 47
M  V30 38 1 47 48
M  V30 39 1 49 50
M  V30 40 1 50 51
M  V30 41 1 52 53
M  V30 42 1 53 54
M  V30 43 1 55 56
M  V30 44 1 56 57
M  V30 45 1 58 59
M  V30 46 1 59 60
M  V30 47 1 61 62
M  V30 48 1 62 63
M  V30 49 1 64 65
M  V30 50 1 65 66
M  V30 51 1 67 68
M  V30 52 1 68 69
M  V30 53 1 70 71
M  V30 54 1 71 72
M  V30 55 1 73 74
M  V30 56 1 74 75
M  V30 57 1 76 77
M  V30 58 1 77 78
M  V30 59 1 79 80
M  V30 60 1 80 81
M  V30 61 1 82 83
M  V30 62 1 83 84
M  V30 63 1 85 86
M  V30 64 1 86 87
M  V30 65 1 88 89
M  V30 66 1 89 90
M  V30 67 1 91 92
M  V30 68 1 92 93
M  V30 69 1 94 95
M  V30 70 1 95 96
M  V30 71 1 97 98
M  V30 72 1 98 99
M  V30 73 1 2 46
M  V30 74 1 3 67
M  V30 75 1 4 64
M  V30 76 1 5 91
M  V30 77 1 7 73
M  V30 78 1 8 85
M  V30 79 1 9 88
M  V30 80 1 10 82
M  V30 81 1 12 55
M  V30 82 1 13 97
M  V30 83 1 14 61
M  V30 84 1 15 52
M  V30 85 1 17 63
M  V30 86 1 18 49
M  V30 87 1 19 79
M  V30 88 1 20 58
M  V30 89 1 22 75
M  V30 90 1 23 99
M  V30 91 1 24 81
M  V30 92 1 25 76
M  V30 93 1 27 51
M  V30 94 1 28 70
M  V30 95 1 29 66
M  V30 96 1 30 60
M  V30 97 1 32 48
M  V30 98 1 33 72
M  V30 99 1 34 54
M  V30 100 1 35 57
M  V30 101 1 37 78
M  V30 102 1 38 94
M  V30 103 1 39 90
M  V30 104 1 40 93
M  V30 105 1 42 87
M  V30 106 1 43 69
M  V30 107 1 44 96
M  V30 108 1 45 84
M  V30 END BOND
M  V30 END CTAB
M  END

$$$$
