
     RDKit          3D

  0  0  0  0  0  0  0  0  0  0999 V3000
M  V30 BEGIN CTAB
M  V30 COUNTS 99 108 0 0 0
M  V30 BEGIN ATOM
M  V30 1 Pd -1.4733 8.6705 0.7847 0
M  V30 2 Pb -1.0097 8.0813 1.4464 0
M  V30 3 Pb -1.9243 9.2454 0.1073 0
M  V30 4 Pb -2.2199 8.0083 0.6515 0
M  V30 5 Pb -0.6471 9.2168 0.6389 0
M  V30 6 Pd 0.4380 -4.5823 -4.2215 0
M  V30 7 Pb 1.2251 -4.9991 -3.7819 0
M  V30 8 Pb -0.1198 -5.3047 -3.8113 0
M  V30 9 Pb 1.0410 -3.8461 -4.5803 0
M  V30 10 Pb -0.3521 -4.1590 -4.6712 0
M  V30 11 Pd -1.9028 7.0208 -3.6251 0
M  V30 12 Pb -1.0978 7.4685 -4.0172 0
M  V30 13 Pb -1.5616 6.1070 -3.8486 0
M  V30 14 Pb -2.5738 6.6571 -2.9685 0
M  V30 15 Pb -2.2482 7.9290 -3.4015 0
M  V30 16 Pd -4.6444 -2.2846 3.6268 0
M  V30 17 Pb -4.0819 -2.0754 4.4276 0
M  V30 18 Pb -5.0958 -2.5254 2.7705 0
M  V30 19 Pb -4.5007 -1.3729 3.2413 0
M  V30 20 Pb -4.7087 -3.2385 3.9090 0
M  V30 21 Pd 2.3903 -3.4269 5.4850 0
M  V30 22 Pb 2.8345 -2.5309 5.4361 0
M  V30 23 Pb 1.9537 -4.3398 5.5300 0
M  V30 24 Pb 1.5813 -3.0131 5.9058 0
M  V30 25 Pb 3.1433 -3.8498 4.9876 0
M  V30 26 Pd -0.1215 -7.7436 2.4687 0
M  V30 27 Pb -1.0585 -7.6769 2.8058 0
M  V30 28 Pb -0.4497 -7.8883 1.5336 0
M  V30 29 Pb 0.8296 -7.7530 2.1710 0
M  V30 30 Pb 0.1990 -7.4881 3.3926 0
M  V30 31 Pd -3.0541 -0.5258 -3.1372 0
M  V30 32 Pb -3.1919 0.0189 -2.3078 0
M  V30 33 Pb -3.6936 -1.1846 -2.7459 0
M  V30 34 Pb -2.9002 -1.1212 -3.9274 0
M  V30 35 Pb -2.4396 0.1712 -3.5064 0
M  V30 36 Pd 3.7332 3.2092 1.6955 0
M  V30 37 Pb 3.9049 2.6486 2.5065 0
M  V30 38 Pb 3.5357 3.7422 0.8797 0
M  V30 39 Pb 3.0957 3.7840 2.2068 0
M  V30 40 Pb 4.3618 2.6315 1.1458 0
M  V30 41 Pd 4.4375 -0.3557 -2.9933 0
M  V30 42 Pb 4.8877 0.1263 -2.2222 0
M  V30 43 Pb 4.0978 0.5168 -3.3277 0
M  V30 44 Pb 3.9180 -0.8513 -3.7132 0
M  V30 45 Pb 4.7939 -1.2210 -2.6606 0
M  V30 46 Ag 3.1710 -1.8600 5.4019 0
M  V30 47 Fe 3.6000 0.1795 4.2605 0
M  V30 48 Ag 4.0203 2.2146 3.1082 0
M  V30 49 Ag -0.0786 9.5009 0.2450 0
M  V30 50 Fe 0.2340 9.0177 -2.0508 0
M  V30 51 Ag -0.4890 7.9023 -4.0092 0
M  V30 52 Ag -4.3707 -0.7503 2.8429 0
M  V30 53 Fe -3.8389 -0.0464 0.6363 0
M  V30 54 Ag -3.3118 0.3548 -1.6460 0
M  V30 55 Ag -0.6500 7.6355 1.9304 0
M  V30 56 Fe 0.9665 5.9344 2.2930 0
M  V30 57 Ag 2.6016 4.2317 2.5485 0
M  V30 58 Ag -5.3372 -2.6888 2.0823 0
M  V30 59 Fe -4.8794 -2.2535 -0.2038 0
M  V30 60 Ag -4.1791 -1.6196 -2.3794 0
M  V30 61 Ag -0.4659 -5.8595 -3.4423 0
M  V30 62 Fe -0.6503 -6.9574 -1.3426 0
M  V30 63 Ag -0.7037 -7.9261 0.8271 0
M  V30 64 Ag 3.5655 -4.2638 4.5372 0
M  V30 65 Fe 2.9833 -6.0553 3.1131 0
M  V30 66 Ag 1.5579 -7.6317 2.0837 0
M  V30 67 Ag 3.3996 4.0061 0.2012 0
M  V30 68 Fe 3.4936 2.9750 -1.9155 0
M  V30 69 Ag 3.8670 1.2125 -3.4341 0
M  V30 70 Ag 1.8567 -5.1858 -3.4453 0
M  V30 71 Fe 3.7025 -3.9004 -2.7510 0
M  V30 72 Ag 4.9424 -1.9195 -2.4687 0
M  V30 73 Ag -4.6869 -3.9756 4.0271 0
M  V30 74 Fe -3.3163 -5.8700 3.6315 0
M  V30 75 Ag -1.7354 -7.5561 3.1000 0
M  V30 76 Ag -3.5953 -1.9591 4.9875 0
M  V30 77 Fe -1.3444 -2.2874 5.6748 0
M  V30 78 Ag 0.9414 -2.7155 6.1638 0
M  V30 79 Ag -1.3183 5.4174 -4.0188 0
M  V30 80 Fe -1.6256 3.0644 -3.9100 0
M  V30 81 Ag -1.9999 0.7235 -3.7596 0
M  V30 82 Ba -2.2462 9.6261 -0.4474 0
M  V30 83 Ga -2.4148 9.1954 -1.8409 0
M  V30 84 Ba -2.4933 8.5986 -3.1801 0
M  V30 85 Ba -0.9262 -3.8289 -5.0292 0
M  V30 86 Ga -1.8543 -2.7109 -4.7586 0
M  V30 87 Ba -2.7883 -1.5951 -4.4998 0
M  V30 88 Ba 4.8667 2.2231 0.7417 0
M  V30 89 Ga 4.9794 1.3491 -0.4633 0
M  V30 90 Ba 5.2434 0.4629 -1.6353 0
M  V30 91 Ba -2.7353 7.5076 0.4059 0
M  V30 92 Ga -2.9249 6.9505 -0.9640 0
M  V30 93 Ba -3.0073 6.4710 -2.3733 0
M  V30 94 Ba 1.4972 -3.3070 -4.8786 0
M  V30 95 Ga 2.5059 -2.2713 -4.4973 0
M  V30 96 Ba 3.5259 -1.2019 -4.2706 0
M  V30 97 Ba 1.6557 -5.0382 5.6003 0
M  V30 98 Ga 1.0415 -6.1289 4.7930 0
M  V30 99 Ba 0.4170 -7.2860 4.0929 0
M  V30 END ATOM
M  V30 BEGIN BOND
M  V30 1 1 1 2
M  V30 2 1 1 3
M  V30 3 1 1 4
M  V30 4 1 1 5
M  V30 5 1 6 7
M  V30 6 1 6 8
M  V30 7 1 6 9
M  V30 8 1 6 10
M  V30 9 1 11 12
M  V30 10 1 11 13
M  V30 11 1 11 14
M  V30 12 1 11 15
M  V30 13 1 16 17
M  V30 14 1 16 18
M  V30 15 1 16 19
M  V30 16 1 16 20
M  V30 17 1 21 22
M  V30 18 1 21 23
M  V30 19 1 21 24
M  V30 20 1 21 25
M  V30 21 1 26 27
M  V30 22 1 26 28
M  V30 23 1 26 29
M  V30 24 1 26 30
M  V30 25 1 31 32
M  V30 26 1 31 33
M  V30 27 1 31 34
M  V30 28 1 31 35
M  V30 29 1 36 37
M  V30 30 1 36 38
M  V30 31 1 36 39
M  V30 32 1 36 40
M  V30 33 1 41 42
M  V30 34 1 41 43
M  V30 35 1 41 44
M  V30 36 1 41 45
M  V30 37 1 46 47
M  V30 38 1 47 48
M  V30 39 1 49 50
M  V30 40 1 50 51
M  V30 41 1 52 53
M  V30 42 1 53 54
M  V30 43 1 55 56
M  V30 44 1 56 57
M  V30 45 1 58 59
M  V30 46 1 59 60
M  V30 47 1 61 62
M  V30 48 1 62 63
M  V30 49 1 64 65
M  V30 50 1 65 66
M  V30 51 1 67 68
M  V30 52 1 68 69
M  V30 53 1 70 71
M  V30 54 1 71 72
M  V30 55 1 73 74
M  V30 56 1 74 75
M  V30 57 1 76 77
M  V30 58 1 77 78
M  V30 59 1 79 80
M  V30 60 1 80 81
M  V30 61 1 82 83
M  V30 62 1 83 84
M  V30 63 1 85 86
M  V30 64 1 86 87
M  V30 65 1 88 89
M  V30 66 1 89 90
M  V30 67 1 91 92
M  V30 68 1 92 93
M  V30 69 1 94 95
M  V30 70 1 95 96
M  V30 71 1 97 98
M  V30 72 1 98 99
M  V30 73 1 2 55
M  V30 74 1 3 82
M  V30 75 1 4 91
M  V30 76 1 5 49
M  V30 77 1 7 70
M  V30 78 1 8 61
M  V30 79 1 9 94
M  V30 80 1 10 85
M  V30 81 1 12 51
M  V30 82 1 13 79
M  V30 83 1 14 93
M  V30 84 1 15 84
M  V30 85 1 17 76
M  V30 86 1 18 58
M  V30 87 1 19 52
M  V30 88 1 20 73
M  V30 89 1 22 46
M  V30 90 1 23 97
M  V30 91 1 24 78
M  V30 92 1 25 64
M  V30 93 1 27 75
M  V30 94 1 28 63
M  V30 95 1 29 66
M  V30 96 1 30 99
M  V30 97 1 32 54
M  V30 98 1 33 60
M  V30 99 1 34 87
M  V30 100 1 35 81
M  V30 101 1 37 48
M  V30 102 1 38 67
M  V30 103 1 39 57
M  V30 104 1 40 88
M  V30 105 1 42 90
M  V30 106 1 43 69
M  V30 107 1 44 96
M  V30 108 1 45 72
M  V30 END BOND
M  V30 END CTAB
M  END

$$$$
