
     RDKit          3D

  0  0  0  0  0  0  0  0  0  0999 V3000
M  V30 BEGIN CTAB
M  V30 COUNTS 99 108 0 0 0
M  V30 BEGIN ATOM
M  V30 1 Pd 2.1156 -1.6171 -3.9233 0
M  V30 2 Pb 1.6979 -2.1433 -4.6654 0
M  V30 3 Pb 1.3873 -0.9345 -4.0029 0
M  V30 4 Pb 2.8353 -2.3027 -3.8350 0
M  V30 5 Pb 2.5185 -1.1582 -3.1298 0
M  V30 6 Pd -1.8684 8.1275 -0.5514 0
M  V30 7 Pb -2.1861 7.5427 0.1958 0
M  V30 8 Pb -2.5933 7.8069 -1.1642 0
M  V30 9 Pb -1.0787 8.3659 0.0080 0
M  V30 10 Pb -1.4932 8.6483 -1.3150 0
M  V30 11 Pd -5.0298 -2.7136 0.9283 0
M  V30 12 Pb -4.8232 -3.5141 0.3317 0
M  V30 13 Pb -5.1299 -1.9155 1.5188 0
M  V30 14 Pb -4.7802 -3.1920 1.7679 0
M  V30 15 Pb -5.2838 -2.1905 0.1234 0
M  V30 16 Pd 0.6548 -3.5899 5.5966 0
M  V30 17 Pb -0.3383 -3.6275 5.6702 0
M  V30 18 Pb 0.6278 -4.5494 5.3314 0
M  V30 19 Pb 0.6895 -2.6298 5.8875 0
M  V30 20 Pb 1.6358 -3.6196 5.3905 0
M  V30 21 Pd -0.4999 2.1480 4.4825 0
M  V30 22 Pb -0.8873 2.9331 3.9913 0
M  V30 23 Pb -1.4177 1.7552 4.4221 0
M  V30 24 Pb -0.1570 1.3973 5.0569 0
M  V30 25 Pb 0.4190 2.5477 4.5306 0
M  V30 26 Pd 3.6790 -7.2807 0.4029 0
M  V30 27 Pb 3.1089 -7.6589 1.1244 0
M  V30 28 Pb 3.0962 -7.6991 -0.2922 0
M  V30 29 Pb 4.1871 -6.8291 -0.3257 0
M  V30 30 Pb 4.1336 -6.7356 1.1124 0
M  V30 31 Pd -2.0257 -4.8486 -3.8064 0
M  V30 32 Pb -1.3913 -4.6298 -4.5500 0
M  V30 33 Pb -1.4586 -5.6341 -3.5485 0
M  V30 34 Pb -2.5904 -4.0798 -4.0824 0
M  V30 35 Pb -2.6628 -5.0217 -3.0282 0
M  V30 36 Pd 3.6670 4.0368 1.2319 0
M  V30 37 Pb 3.5137 3.8294 2.1992 0
M  V30 38 Pb 3.7697 4.2483 0.2596 0
M  V30 39 Pb 3.4535 4.9928 1.4212 0
M  V30 40 Pb 3.8223 3.0769 1.0063 0
M  V30 41 Pd -0.6202 5.7069 -4.4177 0
M  V30 42 Pb -1.5978 5.8864 -4.3027 0
M  V30 43 Pb -0.7792 4.7191 -4.4257 0
M  V30 44 Pb 0.3635 5.5435 -4.3731 0
M  V30 45 Pb -0.4651 6.6929 -4.3793 0
M  V30 46 Ag -2.3733 7.0901 0.7650 0
M  V30 47 Fe -1.7727 5.2860 2.1936 0
M  V30 48 Ag -1.2812 3.4962 3.6803 0
M  V30 49 Ag 0.6497 -5.2593 5.1050 0
M  V30 50 Fe 1.5695 -6.7090 3.4750 0
M  V30 51 Ag 2.6630 -7.8236 1.6959 0
M  V30 52 Ag -5.3801 -1.8799 -0.5407 0
M  V30 53 Fe -4.4281 -2.3563 -2.6405 0
M  V30 54 Ag -3.0515 -3.5074 -4.1647 0
M  V30 55 Ag 2.3356 -3.7459 5.1411 0
M  V30 56 Fe 3.5006 -4.9624 3.4593 0
M  V30 57 Ag 4.3561 -6.2856 1.6752 0
M  V30 58 Ag -4.5962 -3.4344 2.4520 0
M  V30 59 Fe -2.9018 -3.6269 4.1017 0
M  V30 60 Ag -1.0742 -3.7422 5.6103 0
M  V30 61 Ag -0.4489 8.4447 0.4004 0
M  V30 62 Fe 1.4636 7.2083 1.0587 0
M  V30 63 Ag 3.2260 5.6956 1.5337 0
M  V30 64 Ag 3.3669 -2.8150 -3.7171 0
M  V30 65 Fe 4.0429 -4.6486 -2.3741 0
M  V30 66 Ag 4.4826 -6.4504 -0.8969 0
M  V30 67 Ag 2.8466 -0.8939 -2.5071 0
M  V30 68 Fe 3.3691 0.7486 -0.8727 0
M  V30 69 Ag 3.9107 2.3700 0.7766 0
M  V30 70 Ag 3.7999 4.3907 -0.4764 0
M  V30 71 Fe 2.5518 4.9079 -2.4286 0
M  V30 72 Ag 1.0867 5.4225 -4.2242 0
M  V30 73 Ag 0.8243 -0.4426 -4.0791 0
M  V30 74 Fe -0.0165 1.7734 -4.2462 0
M  V30 75 Ag -0.8898 3.9767 -4.4161 0
M  V30 76 Ag 2.5994 -7.9167 -0.8093 0
M  V30 77 Fe 0.7789 -7.1394 -2.1239 0
M  V30 78 Ag -1.0238 -6.2221 -3.3714 0
M  V30 79 Ag -5.1128 -1.3562 2.0154 0
M  V30 80 Fe -3.6716 0.1118 3.2007 0
M  V30 81 Ag -2.1233 1.5199 4.3222 0
M  V30 82 Ba 1.3742 -2.5698 -5.1922 0
M  V30 83 Ga 0.2312 -3.5051 -5.1670 0
M  V30 84 Ba -0.9174 -4.4313 -5.0987 0
M  V30 85 Ba 1.1238 2.8026 4.6059 0
M  V30 86 Ga 2.2364 3.2538 3.7439 0
M  V30 87 Ba 3.3811 3.7136 2.9295 0
M  V30 88 Ba 0.7330 -1.9258 6.1526 0
M  V30 89 Ga 0.3975 -0.5343 5.7749 0
M  V30 90 Ba 0.1285 0.9042 5.5526 0
M  V30 91 Ba -1.1927 8.9605 -1.9237 0
M  V30 92 Ga -0.7605 8.2760 -3.1521 0
M  V30 93 Ba -0.3864 7.4329 -4.2982 0
M  V30 94 Ba -3.0698 7.5412 -1.6819 0
M  V30 95 Ga -2.7689 6.7959 -2.9219 0
M  V30 96 Ba -2.3041 6.0620 -4.1173 0
M  V30 97 Ba -4.6713 -4.1307 -0.1026 0
M  V30 98 Ga -3.8784 -4.5784 -1.2929 0
M  V30 99 Ba -3.1527 -5.1828 -2.4565 0
M  V30 END ATOM
M  V30 BEGIN BOND
M  V30 1 1 1 2
M  V30 2 1 1 3
M  V30 3 1 1 4
M  V30 4 1 1 5
M  V30 5 1 6 7
M  V30 6 1 6 8
M  V30 7 1 6 9
M  V30 8 1 6 10
M  V30 9 1 11 12
M  V30 10 1 11 13
M  V30 11 1 11 14
M  V30 12 1 11 15
M  V30 13 1 16 17
M  V30 14 1 16 18
M  V30 15 1 16 19
M  V30 16 1 16 20
M  V30 17 1 21 22
M  V30 18 1 21 23
M  V30 19 1 21 24
M  V30 20 1 21 25
M  V30 21 1 26 27
M  V30 22 1 26 28
M  V30 23 1 26 29
M  V30 24 1 26 30
M  V30 25 1 31 32
M  V30 26 1 31 33
M  V30 27 1 31 34
M  V30 28 1 31 35
M  V30 29 1 36 37
M  V30 30 1 36 38
M  V30 31 1 36 39
M  V30 32 1 36 40
M  V30 33 1 41 42
M  V30 34 1 41 43
M  V30 35 1 41 44
M  V30 36 1 41 45
M  V30 37 1 46 47
M  V30 38 1 47 48
M  V30 39 1 49 50
M  V30 40 1 50 51
M  V30 41 1 52 53
M  V30 42 1 53 54
M  V30 43 1 55 56
M  V30 44 1 56 57
M  V30 45 1 58 59
M  V30 46 1 59 60
M  V30 47 1 61 62
M  V30 48 1 62 63
M  V30 49 1 64 65
M  V30 50 1 65 66
M  V30 51 1 67 68
M  V30 52 1 68 69
M  V30 53 1 70 71
M  V30 54 1 71 72
M  V30 55 1 73 74
M  V30 56 1 74 75
M  V30 57 1 76 77
M  V30 58 1 77 78
M  V30 59 1 79 80
M  V30 60 1 80 81
M  V30 61 1 82 83
M  V30 62 1 83 84
M  V30 63 1 85 86
M  V30 64 1 86 87
M  V30 65 1 88 89
M  V30 66 1 89 90
M  V30 67 1 91 92
M  V30 68 1 92 93
M  V30 69 1 94 95
M  V30 70 1 95 96
M  V30 71 1 97 98
M  V30 72 1 98 99
M  V30 73 1 2 82
M  V30 74 1 3 73
M  V30 75 1 4 64
M  V30 76 1 5 67
M  V30 77 1 7 46
M  V30 78 1 8 94
M  V30 79 1 9 61
M  V30 80 1 10 91
M  V30 81 1 12 97
M  V30 82 1 13 79
M  V30 83 1 14 58
M  V30 84 1 15 52
M  V30 85 1 17 60
M  V30 86 1 18 49
M  V30 87 1 19 88
M  V30 88 1 20 55
M  V30 89 1 22 48
M  V30 90 1 23 81
M  V30 91 1 24 90
M  V30 92 1 25 85
M  V30 93 1 27 51
M  V30 94 1 28 76
M  V30 95 1 29 66
M  V30 96 1 30 57
M  V30 97 1 32 84
M  V30 98 1 33 78
M  V30 99 1 34 54
M  V30 100 1 35 99
M  V30 101 1 37 87
M  V30 102 1 38 70
M  V30 103 1 39 63
M  V30 104 1 40 69
M  V30 105 1 42 96
M  V30 106 1 43 75
M  V30 107 1 44 72
M  V30 108 1 45 93
M  V30 END BOND
M  V30 END CTAB
M  END

$$$$
