
     RDKit          3D

  0  0  0  0  0  0  0  0  0  0999 V3000
M  V30 BEGIN CTAB
M  V30 COUNTS 99 108 0 0 0
M  V30 BEGIN ATOM
M  V30 1 Pd -2.8531 -4.2060 -0.1001 0
M  V30 2 Pb -3.1995 -3.8940 0.7817 0
M  V30 3 Pb -3.6908 -3.8644 -0.5188 0
M  V30 4 Pb -2.0280 -4.5484 0.3519 0
M  V30 5 Pb -2.4948 -4.4605 -1.0000 0
M  V30 6 Pd 4.7692 -3.9596 1.7157 0
M  V30 7 Pb 4.5495 -3.7255 0.7686 0
M  V30 8 Pb 5.6884 -3.5998 1.5629 0
M  V30 9 Pb 3.8542 -4.3448 1.8400 0
M  V30 10 Pb 4.9676 -4.0398 2.6930 0
M  V30 11 Pd 5.3465 0.4939 0.7015 0
M  V30 12 Pb 4.4614 0.9389 0.8274 0
M  V30 13 Pb 6.1943 -0.0247 0.6487 0
M  V30 14 Pb 5.7038 0.9555 1.5109 0
M  V30 15 Pb 4.9794 -0.0730 -0.0373 0
M  V30 16 Pd -1.2747 0.8337 5.1300 0
M  V30 17 Pb -0.5049 1.4430 5.3206 0
M  V30 18 Pb -1.7748 1.5648 4.6595 0
M  V30 19 Pb -0.7879 0.0946 5.5953 0
M  V30 20 Pb -2.0027 0.1878 4.9124 0
M  V30 21 Pd 1.0869 2.8735 -2.1153 0
M  V30 22 Pb 1.1012 1.9098 -2.4526 0
M  V30 23 Pb 0.9966 3.8075 -1.7722 0
M  V30 24 Pb 1.3366 2.5824 -1.1942 0
M  V30 25 Pb 0.8281 3.1907 -3.0187 0
M  V30 26 Pd 3.8421 -0.3718 5.5605 0
M  V30 27 Pb 3.0422 -0.8496 5.9189 0
M  V30 28 Pb 3.3403 0.4931 5.6313 0
M  V30 29 Pb 4.6224 0.1391 5.1971 0
M  V30 30 Pb 4.3260 -1.2508 5.4956 0
M  V30 31 Pd -5.9239 0.9534 -4.6910 0
M  V30 32 Pb -5.6117 1.6613 -5.3156 0
M  V30 33 Pb -5.7491 0.2324 -5.3631 0
M  V30 34 Pb -6.0343 1.6574 -3.9653 0
M  V30 35 Pb -6.1927 0.2358 -4.0552 0
M  V30 36 Pd -1.6754 -1.6438 -4.9854 0
M  V30 37 Pb -2.5018 -1.8935 -5.4904 0
M  V30 38 Pb -1.6716 -0.8007 -5.5072 0
M  V30 39 Pb -1.6591 -2.5305 -4.5129 0
M  V30 40 Pb -0.8617 -1.3162 -4.4639 0
M  V30 41 Pd -3.3027 5.0146 -1.2402 0
M  V30 42 Pb -3.3781 4.7592 -0.2731 0
M  V30 43 Pb -4.1667 4.5298 -1.4678 0
M  V30 44 Pb -3.2285 5.2809 -2.1956 0
M  V30 45 Pb -2.4236 5.4529 -1.0552 0
M  V30 46 Ag -5.3128 2.2576 -5.6370 0
M  V30 47 Fe -4.1711 4.0815 -4.6756 0
M  V30 48 Ag -3.2492 5.3714 -2.9313 0
M  V30 49 Ag -4.3236 -3.5875 -0.8029 0
M  V30 50 Fe -5.3930 -1.9839 -2.1828 0
M  V30 51 Ag -6.3395 -0.3319 -3.5948 0
M  V30 52 Ag -2.1723 2.1020 4.3124 0
M  V30 53 Fe -2.7790 3.3295 2.3677 0
M  V30 54 Ag -3.4280 4.5919 0.4594 0
M  V30 55 Ag -3.4449 -3.6066 1.4266 0
M  V30 56 Fe -3.0576 -1.9976 3.1253 0
M  V30 57 Ag -2.5017 -0.3347 4.7222 0
M  V30 58 Ag 0.5678 3.3070 -3.6992 0
M  V30 59 Fe -0.5974 1.8814 -5.1621 0
M  V30 60 Ag -1.6022 -0.1385 -5.8271 0
M  V30 61 Ag -1.4286 -4.8032 0.7263 0
M  V30 62 Fe 0.8741 -4.7113 1.3049 0
M  V30 63 Ag 3.1718 -4.6503 1.9071 0
M  V30 64 Ba 0.1031 1.8602 5.4588 0
M  V30 65 Ga 1.5352 1.5183 5.5758 0
M  V30 66 Ba 2.9585 1.1393 5.6858 0
M  V30 67 Ba 3.7867 1.2315 0.9687 0
M  V30 68 Ga 2.6656 1.8153 0.2126 0
M  V30 69 Ba 1.5136 2.4066 -0.4891 0
M  V30 70 Ba -2.2250 -4.6362 -1.6791 0
M  V30 71 Ga -1.9373 -3.8986 -2.9287 0
M  V30 72 Ba -1.6284 -3.2192 -4.2058 0
M  V30 73 Ba -0.4242 -0.4648 5.9376 0
M  V30 74 Ga 0.9946 -0.8400 6.0711 0
M  V30 75 Ba 2.4241 -1.1800 6.1808 0
M  V30 76 Ba 5.1239 -4.0179 3.4273 0
M  V30 77 Ga 4.8932 -2.9791 4.4558 0
M  V30 78 Ba 4.6565 -1.9297 5.4722 0
M  V30 79 Ba -5.5869 -0.3514 -5.8072 0
M  V30 80 Ga -4.3842 -1.2045 -5.8838 0
M  V30 81 Ba -3.1354 -1.9923 -5.8804 0
M  V30 82 Ba 6.3562 -3.2973 1.4117 0
M  V30 83 Ga 6.6740 -1.9155 1.0283 0
M  V30 84 Ba 6.7711 -0.4953 0.6676 0
M  V30 85 Ba 0.8680 4.4946 -1.5031 0
M  V30 86 Ga -0.4075 5.1704 -1.2058 0
M  V30 87 Ba -1.7408 5.7430 -0.9481 0
M  V30 88 Ba 4.3989 -3.4387 0.0920 0
M  V30 89 Ga 4.5294 -2.0257 -0.3141 0
M  V30 90 Ba 4.7250 -0.5788 -0.5308 0
M  V30 91 Ba -6.1434 2.1684 -3.4042 0
M  V30 92 Ga -5.4183 3.1633 -2.5559 0
M  V30 93 Ba -4.8304 4.1876 -1.6391 0
M  V30 94 Ba 1.1389 1.1749 -2.6814 0
M  V30 95 Ga 0.3826 0.0973 -3.3990 0
M  V30 96 Ba -0.2326 -1.0859 -4.0842 0
M  V30 97 Ba 5.9713 1.2240 2.1560 0
M  V30 98 Ga 5.5960 0.9202 3.5493 0
M  V30 99 Ba 5.1700 0.5704 4.9172 0
M  V30 END ATOM
M  V30 BEGIN BOND
M  V30 1 1 1 2
M  V30 2 1 1 3
M  V30 3 1 1 4
M  V30 4 1 1 5
M  V30 5 1 6 7
M  V30 6 1 6 8
M  V30 7 1 6 9
M  V30 8 1 6 10
M  V30 9 1 11 12
M  V30 10 1 11 13
M  V30 11 1 11 14
M  V30 12 1 11 15
M  V30 13 1 16 17
M  V30 14 1 16 18
M  V30 15 1 16 19
M  V30 16 1 16 20
M  V30 17 1 21 22
M  V30 18 1 21 23
M  V30 19 1 21 24
M  V30 20 1 21 25
M  V30 21 1 26 27
M  V30 22 1 26 28
M  V30 23 1 26 29
M  V30 24 1 26 30
M  V30 25 1 31 32
M  V30 26 1 31 33
M  V30 27 1 31 34
M  V30 28 1 31 35
M  V30 29 1 36 37
M  V30 30 1 36 38
M  V30 31 1 36 39
M  V30 32 1 36 40
M  V30 33 1 41 42
M  V30 34 1 41 43
M  V30 35 1 41 44
M  V30 36 1 41 45
M  V30 37 1 46 47
M  V30 38 1 47 48
M  V30 39 1 49 50
M  V30 40 1 50 51
M  V30 41 1 52 53
M  V30 42 1 53 54
M  V30 43 1 55 56
M  V30 44 1 56 57
M  V30 45 1 58 59
M  V30 46 1 59 60
M  V30 47 1 61 62
M  V30 48 1 62 63
M  V30 49 1 64 65
M  V30 50 1 65 66
M  V30 51 1 67 68
M  V30 52 1 68 69
M  V30 53 1 70 71
M  V30 54 1 71 72
M  V30 55 1 73 74
M  V30 56 1 74 75
M  V30 57 1 76 77
M  V30 58 1 77 78
M  V30 59 1 79 80
M  V30 60 1 80 81
M  V30 61 1 82 83
M  V30 62 1 83 84
M  V30 63 1 85 86
M  V30 64 1 86 87
M  V30 65 1 88 89
M  V30 66 1 89 90
M  V30 67 1 91 92
M  V30 68 1 92 93
M  V30 69 1 94 95
M  V30 70 1 95 96
M  V30 71 1 97 98
M  V30 72 1 98 99
M  V30 73 1 2 55
M  V30 74 1 3 49
M  V30 75 1 4 61
M  V30 76 1 5 70
M  V30 77 1 7 88
M  V30 78 1 8 82
M  V30 79 1 9 63
M  V30 80 1 10 76
M  V30 81 1 12 67
M  V30 82 1 13 84
M  V30 83 1 14 97
M  V30 84 1 15 90
M  V30 85 1 17 64
M  V30 86 1 18 52
M  V30 87 1 19 73
M  V30 88 1 20 57
M  V30 89 1 22 94
M  V30 90 1 23 85
M  V30 91 1 24 69
M  V30 92 1 25 58
M  V30 93 1 27 75
M  V30 94 1 28 66
M  V30 95 1 29 99
M  V30 96 1 30 78
M  V30 97 1 32 46
M  V30 98 1 33 79
M  V30 99 1 34 91
M  V30 100 1 35 51
M  V30 101 1 37 81
M  V30 102 1 38 60
M  V30 103 1 39 72
M  V30 104 1 40 96
M  V30 105 1 42 54
M  V30 106 1 43 93
M  V30 107 1 44 48
M  V30 108 1 45 87
M  V30 END BOND
M  V30 END CTAB
M  END

$$$$
