
     RDKit          3D

  0  0  0  0  0  0  0  0  0  0999 V3000
M  V30 BEGIN CTAB
M  V30 COUNTS 99 108 0 0 0
M  V30 BEGIN ATOM
M  V30 1 Pd 3.1165 2.0763 0.9384 0
M  V30 2 Pb 3.6653 1.5305 0.3042 0
M  V30 3 Pb 3.6224 2.9057 0.6987 0
M  V30 4 Pb 2.6518 1.2262 1.1855 0
M  V30 5 Pb 2.5067 2.6044 1.5312 0
M  V30 6 Pd 0.3726 -1.0670 5.0581 0
M  V30 7 Pb -0.1401 -1.2254 5.8986 0
M  V30 8 Pb -0.3086 -0.3849 4.7967 0
M  V30 9 Pb 0.7975 -1.0068 4.1543 0
M  V30 10 Pb 0.9566 -1.8367 5.3109 0
M  V30 11 Pd -3.6157 -2.9238 4.1720 0
M  V30 12 Pb -3.8238 -2.9464 3.1960 0
M  V30 13 Pb -3.6222 -1.9248 4.1342 0
M  V30 14 Pb -3.4878 -3.9160 4.1876 0
M  V30 15 Pb -3.3749 -2.8591 5.1402 0
M  V30 16 Pd 2.5813 -4.6961 -1.7814 0
M  V30 17 Pb 1.9277 -5.4185 -1.5427 0
M  V30 18 Pb 2.1216 -4.5341 -2.6554 0
M  V30 19 Pb 3.0571 -4.8630 -0.9220 0
M  V30 20 Pb 3.1890 -3.9173 -1.9419 0
M  V30 21 Pd -5.2217 1.5258 -1.8789 0
M  V30 22 Pb -4.9991 1.9835 -0.9981 0
M  V30 23 Pb -5.2377 1.1389 -2.7960 0
M  V30 24 Pb -5.0224 0.6250 -1.4935 0
M  V30 25 Pb -5.4589 2.4030 -2.2776 0
M  V30 26 Pd 0.7214 -5.9248 2.9511 0
M  V30 27 Pb 1.6542 -5.7905 2.6269 0
M  V30 28 Pb 0.4817 -6.3045 2.0531 0
M  V30 29 Pb -0.2142 -6.0762 3.2850 0
M  V30 30 Pb 1.0153 -5.5223 3.8190 0
M  V30 31 Pd 2.9368 5.0300 -3.2510 0
M  V30 32 Pb 2.2752 4.7942 -3.9956 0
M  V30 33 Pb 2.3103 5.6556 -2.7829 0
M  V30 34 Pb 3.6245 4.4714 -3.6955 0
M  V30 35 Pb 3.5620 5.1742 -2.4878 0
M  V30 36 Pd -1.4104 5.3366 0.3133 0
M  V30 37 Pb -0.6784 5.9289 -0.0183 0
M  V30 38 Pb -2.0029 5.8059 -0.3293 0
M  V30 39 Pb -0.8133 4.9238 1.0072 0
M  V30 40 Pb -2.1802 4.7124 0.5564 0
M  V30 41 Pd 0.4236 0.6735 -6.4764 0
M  V30 42 Pb 0.4031 -0.3247 -6.4896 0
M  V30 43 Pb 1.4075 0.6331 -6.5918 0
M  V30 44 Pb 0.4855 1.6830 -6.3224 0
M  V30 45 Pb -0.5728 0.6679 -6.3889 0
M  V30 46 Ag 1.7944 -4.3979 -3.3173 0
M  V30 47 Fe 1.0744 -2.7988 -4.9184 0
M  V30 48 Ag 0.4160 -1.0684 -6.4052 0
M  V30 49 Ag -3.9624 -2.9108 2.4616 0
M  V30 50 Fe -4.4323 -1.5101 0.6034 0
M  V30 51 Ag -4.8994 -0.0618 -1.2187 0
M  V30 52 Ag -5.1078 0.9221 -3.4978 0
M  V30 53 Fe -3.2821 0.7182 -4.9998 0
M  V30 54 Ag -1.3173 0.5970 -6.3256 0
M  V30 55 Ag 4.0071 1.0674 -0.1779 0
M  V30 56 Fe 3.9123 -1.0973 -1.1529 0
M  V30 57 Ag 3.6160 -3.3015 -1.9891 0
M  V30 58 Ag 4.0557 4.0081 -4.0751 0
M  V30 59 Fe 3.5757 2.1899 -5.4852 0
M  V30 60 Ag 2.1428 0.6918 -6.5925 0
M  V30 61 Ag -5.5256 3.1002 -2.5103 0
M  V30 62 Fe -4.2473 4.9944 -1.9651 0
M  V30 63 Ag -2.4989 6.0611 -0.8132 0
M  V30 64 Ba 1.7798 4.6266 -4.5653 0
M  V30 65 Ga 1.1943 3.4807 -5.3420 0
M  V30 66 Ba 0.5244 2.4455 -6.2015 0
M  V30 67 Ba 1.4259 -5.9316 -1.3137 0
M  V30 68 Ga 0.8715 -6.2715 0.0163 0
M  V30 69 Ba 0.3429 -6.5793 1.3647 0
M  V30 70 Ba 4.0135 3.5191 0.5138 0
M  V30 71 Ga 4.0327 4.4006 -0.6666 0
M  V30 72 Ba 3.9919 5.2352 -1.8799 0
M  V30 73 Ba 2.0284 2.9877 1.9655 0
M  V30 74 Ga 0.8266 3.8178 1.7349 0
M  V30 75 Ba -0.3797 4.6552 1.5627 0
M  V30 76 Ba 3.4035 -4.9919 -0.2737 0
M  V30 77 Ga 2.9064 -5.3402 1.0648 0
M  V30 78 Ba 2.3515 -5.6870 2.3807 0
M  V30 79 Ba 1.3163 -2.4594 5.5212 0
M  V30 80 Ga 1.3242 -3.8351 4.9876 0
M  V30 81 Ba 1.3110 -5.2015 4.4306 0
M  V30 82 Ba 1.9411 6.1713 -2.3785 0
M  V30 83 Ga 0.8740 6.2486 -1.3616 0
M  V30 84 Ba -0.1857 6.3898 -0.3437 0
M  V30 85 Ba -0.8986 0.0376 4.6128 0
M  V30 86 Ga -2.2564 -0.4647 4.3403 0
M  V30 87 Ba -3.5217 -1.1825 4.1075 0
M  V30 88 Ba -0.5965 -1.4231 6.4555 0
M  V30 89 Ga -1.8935 -2.0918 6.2687 0
M  V30 90 Ba -3.1424 -2.7431 5.8430 0
M  V30 91 Ba 2.3541 0.5534 1.3300 0
M  V30 92 Ga 1.7072 -0.1815 2.4338 0
M  V30 93 Ba 1.0533 -1.0292 3.4488 0
M  V30 94 Ba -4.7892 2.3298 -0.3453 0
M  V30 95 Ga -3.7586 3.3020 0.1451 0
M  V30 96 Ba -2.7760 4.2621 0.7452 0
M  V30 97 Ba -3.3373 -4.6517 4.1912 0
M  V30 98 Ga -2.1261 -5.4328 3.8585 0
M  V30 99 Ba -0.9156 -6.2154 3.5266 0
M  V30 END ATOM
M  V30 BEGIN BOND
M  V30 1 1 1 2
M  V30 2 1 1 3
M  V30 3 1 1 4
M  V30 4 1 1 5
M  V30 5 1 6 7
M  V30 6 1 6 8
M  V30 7 1 6 9
M  V30 8 1 6 10
M  V30 9 1 11 12
M  V30 10 1 11 13
M  V30 11 1 11 14
M  V30 12 1 11 15
M  V30 13 1 16 17
M  V30 14 1 16 18
M  V30 15 1 16 19
M  V30 16 1 16 20
M  V30 17 1 21 22
M  V30 18 1 21 23
M  V30 19 1 21 24
M  V30 20 1 21 25
M  V30 21 1 26 27
M  V30 22 1 26 28
M  V30 23 1 26 29
M  V30 24 1 26 30
M  V30 25 1 31 32
M  V30 26 1 31 33
M  V30 27 1 31 34
M  V30 28 1 31 35
M  V30 29 1 36 37
M  V30 30 1 36 38
M  V30 31 1 36 39
M  V30 32 1 36 40
M  V30 33 1 41 42
M  V30 34 1 41 43
M  V30 35 1 41 44
M  V30 36 1 41 45
M  V30 37 1 46 47
M  V30 38 1 47 48
M  V30 39 1 49 50
M  V30 40 1 50 51
M  V30 41 1 52 53
M  V30 42 1 53 54
M  V30 43 1 55 56
M  V30 44 1 56 57
M  V30 45 1 58 59
M  V30 46 1 59 60
M  V30 47 1 61 62
M  V30 48 1 62 63
M  V30 49 1 64 65
M  V30 50 1 65 66
M  V30 51 1 67 68
M  V30 52 1 68 69
M  V30 53 1 70 71
M  V30 54 1 71 72
M  V30 55 1 73 74
M  V30 56 1 74 75
M  V30 57 1 76 77
M  V30 58 1 77 78
M  V30 59 1 79 80
M  V30 60 1 80 81
M  V30 61 1 82 83
M  V30 62 1 83 84
M  V30 63 1 85 86
M  V30 64 1 86 87
M  V30 65 1 88 89
M  V30 66 1 89 90
M  V30 67 1 91 92
M  V30 68 1 92 93
M  V30 69 1 94 95
M  V30 70 1 95 96
M  V30 71 1 97 98
M  V30 72 1 98 99
M  V30 73 1 2 55
M  V30 74 1 3 70
M  V30 75 1 4 91
M  V30 76 1 5 73
M  V30 77 1 7 88
M  V30 78 1 8 85
M  V30 79 1 9 93
M  V30 80 1 10 79
M  V30 81 1 12 49
M  V30 82 1 13 87
M  V30 83 1 14 97
M  V30 84 1 15 90
M  V30 85 1 17 67
M  V30 86 1 18 46
M  V30 87 1 19 76
M  V30 88 1 20 57
M  V30 89 1 22 94
M  V30 90 1 23 52
M  V30 91 1 24 51
M  V30 92 1 25 61
M  V30 93 1 27 78
M  V30 94 1 28 69
M  V30 95 1 29 99
M  V30 96 1 30 81
M  V30 97 1 32 64
M  V30 98 1 33 82
M  V30 99 1 34 58
M  V30 100 1 35 72
M  V30 101 1 37 84
M  V30 102 1 38 63
M  V30 103 1 39 75
M  V30 104 1 40 96
M  V30 105 1 42 48
M  V30 106 1 43 60
M  V30 107 1 44 66
M  V30 108 1 45 54
M  V30 END BOND
M  V30 END CTAB
M  END

$$$$
