
     RDKit          3D

  0  0  0  0  0  0  0  0  0  0999 V3000
M  V30 BEGIN CTAB
M  V30 COUNTS 99 108 0 0 0
M  V30 BEGIN ATOM
M  V30 1 Pd -0.4849 2.8586 1.5566 0
M  V30 2 Pb -1.1081 3.3229 0.9298 0
M  V30 3 Pb 0.0632 2.3437 2.2213 0
M  V30 4 Pb -1.1620 3.0232 2.2698 0
M  V30 5 Pb 0.0727 2.5899 0.7655 0
M  V30 6 Pd 7.3694 1.9312 2.7971 0
M  V30 7 Pb 7.2896 1.0559 2.3199 0
M  V30 8 Pb 7.4081 2.7965 3.2991 0
M  V30 9 Pb 7.5505 2.4012 1.9286 0
M  V30 10 Pb 7.1476 1.4776 3.6629 0
M  V30 11 Pd -3.5063 -2.4708 -5.5062 0
M  V30 12 Pb -3.5270 -1.4874 -5.6703 0
M  V30 13 Pb -2.5163 -2.4928 -5.6534 0
M  V30 14 Pb -3.4715 -3.4483 -5.3088 0
M  V30 15 Pb -4.4877 -2.4365 -5.2987 0
M  V30 16 Pd -2.4473 -6.3211 0.4017 0
M  V30 17 Pb -2.5039 -6.6545 -0.5353 0
M  V30 18 Pb -3.4407 -6.2196 0.4096 0
M  V30 19 Pb -1.4480 -6.3239 0.3490 0
M  V30 20 Pb -2.4448 -5.8691 1.2935 0
M  V30 21 Pd 3.6699 -2.4812 -2.3873 0
M  V30 22 Pb 4.3552 -2.4097 -1.6625 0
M  V30 23 Pb 3.0088 -2.5440 -3.1388 0
M  V30 24 Pb 3.2461 -3.2550 -1.9100 0
M  V30 25 Pb 4.1197 -1.7174 -2.8523 0
M  V30 26 Pd -6.4735 -0.8001 2.3156 0
M  V30 27 Pb -6.7534 -1.6582 1.8894 0
M  V30 28 Pb -7.0927 -0.2792 1.7248 0
M  V30 29 Pb -6.1301 0.0344 2.7452 0
M  V30 30 Pb -5.8029 -1.3378 2.8297 0
M  V30 31 Pd -6.1913 1.1165 -2.8704 0
M  V30 32 Pb -5.7616 1.9289 -2.4799 0
M  V30 33 Pb -6.8375 1.0670 -2.1021 0
M  V30 34 Pb -6.5507 0.2726 -3.2738 0
M  V30 35 Pb -5.5633 1.1925 -3.6440 0
M  V30 36 Pd 4.3843 2.9100 -1.5081 0
M  V30 37 Pb 4.6969 2.2244 -2.1673 0
M  V30 38 Pb 4.0410 3.6047 -0.8823 0
M  V30 39 Pb 5.3311 3.1708 -1.3094 0
M  V30 40 Pb 3.4434 2.5961 -1.6147 0
M  V30 41 Pd 3.6732 3.2872 5.3538 0
M  V30 42 Pb 4.4795 3.8692 5.4419 0
M  V30 43 Pb 2.9314 2.6548 5.1276 0
M  V30 44 Pb 3.2508 3.9880 4.7910 0
M  V30 45 Pb 4.1907 2.5452 5.7741 0
M  V30 46 Ag 7.2038 0.3911 1.9829 0
M  V30 47 Fe 6.0529 -0.9819 0.4235 0
M  V30 48 Ag 4.8899 -2.3389 -1.1410 0
M  V30 49 Ag -1.6364 3.6232 0.4929 0
M  V30 50 Fe -3.5188 3.1626 -0.8769 0
M  V30 51 Ag -5.3702 2.5068 -2.2090 0
M  V30 52 Ag -0.7027 -6.2831 0.2659 0
M  V30 53 Fe 1.1347 -5.0683 -0.6290 0
M  V30 54 Ag 2.9587 -3.8397 -1.5323 0
M  V30 55 Ag -4.1685 -6.0457 0.4190 0
M  V30 56 Fe -5.6627 -4.2839 0.9597 0
M  V30 57 Ag -6.8616 -2.3397 1.6008 0
M  V30 58 Ag -2.5459 -5.4543 1.9102 0
M  V30 59 Fe -3.8450 -3.6204 2.6813 0
M  V30 60 Ag -5.2815 -1.7834 3.1371 0
M  V30 61 Ag -3.3998 -4.1663 -5.1128 0
M  V30 62 Fe -3.0015 -5.6247 -3.2866 0
M  V30 63 Ag -2.5957 -6.7906 -1.2629 0
M  V30 64 Ag -1.7583 3.0636 2.7178 0
M  V30 65 Fe -3.8333 1.9569 3.0303 0
M  V30 66 Ag -5.7985 0.6279 3.0604 0
M  V30 67 Ag 3.7442 4.0865 -0.3963 0
M  V30 68 Fe 3.2789 4.4700 1.8925 0
M  V30 69 Ag 3.0381 4.4446 4.2463 0
M  V30 70 Ag -1.7699 -2.5283 -5.7315 0
M  V30 71 Fe 0.3801 -2.5482 -4.7170 0
M  V30 72 Ag 2.5423 -2.5715 -3.7290 0
M  V30 73 Ba 4.4819 -1.1536 -3.1912 0
M  V30 74 Ga 4.6908 0.2837 -2.9261 0
M  V30 75 Ba 4.9142 1.7225 -2.6821 0
M  V30 76 Ba -5.2179 -2.3848 -5.1187 0
M  V30 77 Ga -6.0142 -1.3915 -4.3647 0
M  V30 78 Ba -6.7651 -0.3690 -3.6032 0
M  V30 79 Ba 6.9420 1.1764 4.3208 0
M  V30 80 Ga 5.8188 1.5204 5.2130 0
M  V30 81 Ba 4.6516 1.9936 5.9802 0
M  V30 82 Ba 7.3849 3.4167 3.7220 0
M  V30 83 Ga 6.3026 3.9079 4.5948 0
M  V30 84 Ba 5.1230 4.2499 5.4107 0
M  V30 85 Ba -3.5669 -0.7464 -5.7564 0
M  V30 86 Ga -4.3194 0.2761 -5.0112 0
M  V30 87 Ba -5.0963 1.2505 -4.2271 0
M  V30 88 Ba 7.6734 2.7590 1.2764 0
M  V30 89 Ga 6.8649 3.0536 0.0729 0
M  V30 90 Ba 6.0401 3.3381 -1.1219 0
M  V30 91 Ba 0.3656 2.3593 0.1088 0
M  V30 92 Ga 1.5803 2.3809 -0.7317 0
M  V30 93 Ba 2.7402 2.3430 -1.6466 0
M  V30 94 Ba 0.3845 1.9359 2.7683 0
M  V30 95 Ga 1.4106 2.0765 3.8236 0
M  V30 96 Ba 2.4237 2.1510 4.8983 0
M  V30 97 Ba -7.5424 0.0966 1.2534 0
M  V30 98 Ga -7.4234 0.5722 -0.1429 0
M  V30 99 Ba -7.3385 1.0610 -1.5372 0
M  V30 END ATOM
M  V30 BEGIN BOND
M  V30 1 1 1 2
M  V30 2 1 1 3
M  V30 3 1 1 4
M  V30 4 1 1 5
M  V30 5 1 6 7
M  V30 6 1 6 8
M  V30 7 1 6 9
M  V30 8 1 6 10
M  V30 9 1 11 12
M  V30 10 1 11 13
M  V30 11 1 11 14
M  V30 12 1 11 15
M  V30 13 1 16 17
M  V30 14 1 16 18
M  V30 15 1 16 19
M  V30 16 1 16 20
M  V30 17 1 21 22
M  V30 18 1 21 23
M  V30 19 1 21 24
M  V30 20 1 21 25
M  V30 21 1 26 27
M  V30 22 1 26 28
M  V30 23 1 26 29
M  V30 24 1 26 30
M  V30 25 1 31 32
M  V30 26 1 31 33
M  V30 27 1 31 34
M  V30 28 1 31 35
M  V30 29 1 36 37
M  V30 30 1 36 38
M  V30 31 1 36 39
M  V30 32 1 36 40
M  V30 33 1 41 42
M  V30 34 1 41 43
M  V30 35 1 41 44
M  V30 36 1 41 45
M  V30 37 1 46 47
M  V30 38 1 47 48
M  V30 39 1 49 50
M  V30 40 1 50 51
M  V30 41 1 52 53
M  V30 42 1 53 54
M  V30 43 1 55 56
M  V30 44 1 56 57
M  V30 45 1 58 59
M  V30 46 1 59 60
M  V30 47 1 61 62
M  V30 48 1 62 63
M  V30 49 1 64 65
M  V30 50 1 65 66
M  V30 51 1 67 68
M  V30 52 1 68 69
M  V30 53 1 70 71
M  V30 54 1 71 72
M  V30 55 1 73 74
M  V30 56 1 74 75
M  V30 57 1 76 77
M  V30 58 1 77 78
M  V30 59 1 79 80
M  V30 60 1 80 81
M  V30 61 1 82 83
M  V30 62 1 83 84
M  V30 63 1 85 86
M  V30 64 1 86 87
M  V30 65 1 88 89
M  V30 66 1 89 90
M  V30 67 1 91 92
M  V30 68 1 92 93
M  V30 69 1 94 95
M  V30 70 1 95 96
M  V30 71 1 97 98
M  V30 72 1 98 99
M  V30 73 1 2 49
M  V30 74 1 3 94
M  V30 75 1 4 64
M  V30 76 1 5 91
M  V30 77 1 7 46
M  V30 78 1 8 82
M  V30 79 1 9 88
M  V30 80 1 10 79
M  V30 81 1 12 85
M  V30 82 1 13 70
M  V30 83 1 14 61
M  V30 84 1 15 76
M  V30 85 1 17 63
M  V30 86 1 18 55
M  V30 87 1 19 52
M  V30 88 1 20 58
M  V30 89 1 22 48
M  V30 90 1 23 72
M  V30 91 1 24 54
M  V30 92 1 25 73
M  V30 93 1 27 57
M  V30 94 1 28 97
M  V30 95 1 29 66
M  V30 96 1 30 60
M  V30 97 1 32 51
M  V30 98 1 33 99
M  V30 99 1 34 78
M  V30 100 1 35 87
M  V30 101 1 37 75
M  V30 102 1 38 67
M  V30 103 1 39 90
M  V30 104 1 40 93
M  V30 105 1 42 84
M  V30 106 1 43 96
M  V30 107 1 44 69
M  V30 108 1 45 81
M  V30 END BOND
M  V30 END CTAB
M  END

$$$$
