
     RDKit          3D

  0  0  0  0  0  0  0  0  0  0999 V3000
M  V30 BEGIN CTAB
M  V30 COUNTS 99 108 0 0 0
M  V30 BEGIN ATOM
M  V30 1 Pd 0.3538 3.5240 2.1708 0
M  V30 2 Pb -0.4819 3.0513 2.4764 0
M  V30 3 Pb 0.0955 3.2943 1.2350 0
M  V30 4 Pb 1.1659 4.0236 1.8690 0
M  V30 5 Pb 0.6088 3.6635 3.1295 0
M  V30 6 Pd 6.1105 -1.4707 -4.0213 0
M  V30 7 Pb 5.8805 -2.3939 -3.7231 0
M  V30 8 Pb 5.3585 -1.5290 -4.6666 0
M  V30 9 Pb 6.8042 -1.3506 -3.3162 0
M  V30 10 Pb 6.1822 -0.4880 -4.2360 0
M  V30 11 Pd -2.8875 -1.4544 2.4297 0
M  V30 12 Pb -2.8471 -1.5829 3.4172 0
M  V30 13 Pb -2.7777 -0.4697 2.6163 0
M  V30 14 Pb -2.8412 -1.2458 1.4559 0
M  V30 15 Pb -3.0309 -2.4336 2.2644 0
M  V30 16 Pd -5.2394 1.6967 -0.9881 0
M  V30 17 Pb -4.7866 1.3747 -1.8185 0
M  V30 18 Pb -4.3996 2.1298 -0.6651 0
M  V30 19 Pb -5.6863 1.8257 -0.1039 0
M  V30 20 Pb -6.0324 1.1299 -1.2558 0
M  V30 21 Pd 1.2642 -0.2197 5.0113 0
M  V30 22 Pb 1.2836 0.6868 5.4322 0
M  V30 23 Pb 1.2096 -1.0609 4.4527 0
M  V30 24 Pb 2.2217 -0.1329 4.7572 0
M  V30 25 Pb 0.3313 -0.3982 5.3317 0
M  V30 26 Pd 2.5789 -3.0499 -0.1722 0
M  V30 27 Pb 1.6834 -3.0589 -0.6284 0
M  V30 28 Pb 3.0814 -3.3689 -0.9821 0
M  V30 29 Pb 2.1041 -2.8993 0.7130 0
M  V30 30 Pb 3.4460 -2.8929 0.2877 0
M  V30 31 Pd -6.4643 -3.5454 -0.2664 0
M  V30 32 Pb -6.9658 -2.8015 -0.7291 0
M  V30 33 Pb -6.8725 -3.2282 0.5887 0
M  V30 34 Pb -5.8399 -4.1461 0.2280 0
M  V30 35 Pb -5.9639 -3.6804 -1.1206 0
M  V30 36 Pd -0.2301 0.9033 -2.4974 0
M  V30 37 Pb -0.6480 1.3558 -1.7088 0
M  V30 38 Pb 0.1578 0.4844 -3.3116 0
M  V30 39 Pb 0.0942 1.8015 -2.8047 0
M  V30 40 Pb -0.4722 -0.0241 -2.1896 0
M  V30 41 Pd 4.4196 3.5631 -1.8086 0
M  V30 42 Pb 4.0818 4.0546 -1.0055 0
M  V30 43 Pb 3.5687 3.7677 -2.3001 0
M  V30 44 Pb 5.2465 3.3078 -1.3134 0
M  V30 45 Pb 4.8112 3.0981 -2.6191 0
M  V30 46 Ag 2.9174 -0.2053 4.5091 0
M  V30 47 Fe 3.8951 -1.3454 2.6900 0
M  V30 48 Ag 3.9914 -2.6320 0.7156 0
M  V30 49 Ag 4.7255 -1.5056 -5.0517 0
M  V30 50 Fe 2.5204 -0.7339 -4.6890 0
M  V30 51 Ag 0.4792 0.1618 -3.8997 0
M  V30 52 Ag -0.1773 2.9775 0.6179 0
M  V30 53 Fe -1.4776 1.0309 0.2776 0
M  V30 54 Ag -2.6984 -0.9266 0.7986 0
M  V30 55 Ag 7.2167 -1.0778 -2.7625 0
M  V30 56 Fe 6.9169 0.9426 -1.5794 0
M  V30 57 Ag 5.8540 2.9796 -1.0363 0
M  V30 58 Ag -6.0481 1.6767 0.5314 0
M  V30 59 Fe -6.7956 -0.4353 1.2918 0
M  V30 60 Ag -7.0944 -2.7774 1.1403 0
M  V30 61 Ag -4.5317 0.9194 -2.3519 0
M  V30 62 Fe -4.8000 -1.4275 -2.4856 0
M  V30 63 Ag -5.5682 -3.5361 -1.7365 0
M  V30 64 Ba 0.3629 2.4685 -3.0290 0
M  V30 65 Ga 1.6419 3.1901 -2.8444 0
M  V30 66 Ba 2.9213 3.9105 -2.6589 0
M  V30 67 Ba 1.1143 -1.6777 4.0168 0
M  V30 68 Ga 1.4858 -2.2197 2.6782 0
M  V30 69 Ba 1.7462 -2.9217 1.3892 0
M  V30 70 Ba -1.1340 2.7468 2.7114 0
M  V30 71 Ga -1.8816 1.4647 2.7162 0
M  V30 72 Ba -2.7500 0.2644 2.8018 0
M  V30 73 Ba -6.6105 0.6706 -1.4416 0
M  V30 74 Ga -6.9474 -0.7677 -1.2472 0
M  V30 75 Ba -7.2984 -2.2038 -1.0608 0
M  V30 76 Ba 0.9854 -2.9976 -0.9122 0
M  V30 77 Ga 0.1883 -1.8747 -1.4671 0
M  V30 78 Ba -0.6069 -0.7499 -2.0208 0
M  V30 79 Ba -3.7446 2.3782 -0.4002 0
M  V30 80 Ga -2.3470 2.0811 -0.7668 0
M  V30 81 Ba -0.9615 1.7601 -1.1590 0
M  V30 82 Ba 6.1723 0.2543 -4.3953 0
M  V30 83 Ga 5.6502 1.5010 -3.7696 0
M  V30 84 Ba 5.1624 2.7991 -3.2268 0
M  V30 85 Ba 1.7663 4.4258 1.6681 0
M  V30 86 Ga 2.7991 4.4035 0.6149 0
M  V30 87 Ba 3.8643 4.4480 -0.4047 0
M  V30 88 Ba -3.1681 -3.1653 2.1490 0
M  V30 89 Ga -4.2154 -3.8872 1.3994 0
M  V30 90 Ba -5.3076 -4.4991 0.6173 0
M  V30 91 Ba 5.5930 -3.0486 -3.5028 0
M  V30 92 Ga 4.5505 -3.3670 -2.5038 0
M  V30 93 Ba 3.5040 -3.7005 -1.5140 0
M  V30 94 Ba -2.7497 -1.5681 4.1581 0
M  V30 95 Ga -1.5705 -1.1013 4.9121 0
M  V30 96 Ba -0.3466 -0.6145 5.5774 0
M  V30 97 Ba 0.7853 3.6952 3.8598 0
M  V30 98 Ga 1.0511 2.6005 4.8145 0
M  V30 99 Ba 1.2933 1.4053 5.6470 0
M  V30 END ATOM
M  V30 BEGIN BOND
M  V30 1 1 1 2
M  V30 2 1 1 3
M  V30 3 1 1 4
M  V30 4 1 1 5
M  V30 5 1 6 7
M  V30 6 1 6 8
M  V30 7 1 6 9
M  V30 8 1 6 10
M  V30 9 1 11 12
M  V30 10 1 11 13
M  V30 11 1 11 14
M  V30 12 1 11 15
M  V30 13 1 16 17
M  V30 14 1 16 18
M  V30 15 1 16 19
M  V30 16 1 16 20
M  V30 17 1 21 22
M  V30 18 1 21 23
M  V30 19 1 21 24
M  V30 20 1 21 25
M  V30 21 1 26 27
M  V30 22 1 26 28
M  V30 23 1 26 29
M  V30 24 1 26 30
M  V30 25 1 31 32
M  V30 26 1 31 33
M  V30 27 1 31 34
M  V30 28 1 31 35
M  V30 29 1 36 37
M  V30 30 1 36 38
M  V30 31 1 36 39
M  V30 32 1 36 40
M  V30 33 1 41 42
M  V30 34 1 41 43
M  V30 35 1 41 44
M  V30 36 1 41 45
M  V30 37 1 46 47
M  V30 38 1 47 48
M  V30 39 1 49 50
M  V30 40 1 50 51
M  V30 41 1 52 53
M  V30 42 1 53 54
M  V30 43 1 55 56
M  V30 44 1 56 57
M  V30 45 1 58 59
M  V30 46 1 59 60
M  V30 47 1 61 62
M  V30 48 1 62 63
M  V30 49 1 64 65
M  V30 50 1 65 66
M  V30 51 1 67 68
M  V30 52 1 68 69
M  V30 53 1 70 71
M  V30 54 1 71 72
M  V30 55 1 73 74
M  V30 56 1 74 75
M  V30 57 1 76 77
M  V30 58 1 77 78
M  V30 59 1 79 80
M  V30 60 1 80 81
M  V30 61 1 82 83
M  V30 62 1 83 84
M  V30 63 1 85 86
M  V30 64 1 86 87
M  V30 65 1 88 89
M  V30 66 1 89 90
M  V30 67 1 91 92
M  V30 68 1 92 93
M  V30 69 1 94 95
M  V30 70 1 95 96
M  V30 71 1 97 98
M  V30 72 1 98 99
M  V30 73 1 2 70
M  V30 74 1 3 52
M  V30 75 1 4 85
M  V30 76 1 5 97
M  V30 77 1 7 91
M  V30 78 1 8 49
M  V30 79 1 9 55
M  V30 80 1 10 82
M  V30 81 1 12 94
M  V30 82 1 13 72
M  V30 83 1 14 54
M  V30 84 1 15 88
M  V30 85 1 17 61
M  V30 86 1 18 79
M  V30 87 1 19 58
M  V30 88 1 20 73
M  V30 89 1 22 99
M  V30 90 1 23 67
M  V30 91 1 24 46
M  V30 92 1 25 96
M  V30 93 1 27 76
M  V30 94 1 28 93
M  V30 95 1 29 69
M  V30 96 1 30 48
M  V30 97 1 32 75
M  V30 98 1 33 60
M  V30 99 1 34 90
M  V30 100 1 35 63
M  V30 101 1 37 81
M  V30 102 1 38 51
M  V30 103 1 39 64
M  V30 104 1 40 78
M  V30 105 1 42 87
M  V30 106 1 43 66
M  V30 107 1 44 57
M  V30 108 1 45 84
M  V30 END BOND
M  V30 END CTAB
M  END

$$$$
