
     RDKit          3D

  0  0  0  0  0  0  0  0  0  0999 V3000
M  V30 BEGIN CTAB
M  V30 COUNTS 99 108 0 0 0
M  V30 BEGIN ATOM
M  V30 1 Pd -3.5514 -0.0776 6.5166 0
M  V30 2 Pb -3.3222 0.8084 6.9446 0
M  V30 3 Pb -4.5168 0.1069 6.6715 0
M  V30 4 Pb -2.5821 -0.3184 6.4428 0
M  V30 5 Pb -3.8094 -0.7302 5.8082 0
M  V30 6 Pd 0.1689 0.0209 2.7989 0
M  V30 7 Pb 1.0343 0.5161 2.7627 0
M  V30 8 Pb 0.0336 0.4393 1.9055 0
M  V30 9 Pb -0.6849 -0.4941 2.7355 0
M  V30 10 Pb 0.2913 -0.3139 3.7282 0
M  V30 11 Pd 2.5805 -5.7342 -2.9406 0
M  V30 12 Pb 3.4487 -6.0087 -2.5245 0
M  V30 13 Pb 1.7290 -5.4445 -3.3720 0
M  V30 14 Pb 2.1003 -5.8002 -2.0623 0
M  V30 15 Pb 3.0622 -5.6265 -3.8104 0
M  V30 16 Pd 6.9365 -3.3583 -3.5479 0
M  V30 17 Pb 7.3869 -2.9409 -2.7650 0
M  V30 18 Pb 6.9149 -2.4506 -4.0031 0
M  V30 19 Pb 6.4303 -3.7732 -4.3026 0
M  V30 20 Pb 6.8567 -4.2216 -3.0501 0
M  V30 21 Pd -4.1847 4.8110 4.2814 0
M  V30 22 Pb -4.5959 4.9883 3.3907 0
M  V30 23 Pb -3.2879 4.9272 3.8568 0
M  V30 24 Pb -5.0973 4.7169 4.6679 0
M  V30 25 Pb -3.7862 4.4690 5.1538 0
M  V30 26 Pd -4.3931 1.8647 -0.5009 0
M  V30 27 Pb -4.6969 2.6582 0.0360 0
M  V30 28 Pb -4.1677 1.1017 -1.1073 0
M  V30 29 Pb -4.1937 2.5070 -1.2450 0
M  V30 30 Pb -4.5436 1.1948 0.2361 0
M  V30 31 Pd -1.7371 -3.2421 -1.0381 0
M  V30 32 Pb -2.0416 -2.9282 -0.1367 0
M  V30 33 Pb -1.4646 -3.5677 -1.9418 0
M  V30 34 Pb -2.3239 -2.5677 -1.4859 0
M  V30 35 Pb -1.1256 -3.9200 -0.6231 0
M  V30 36 Pd 0.1248 4.0097 -2.1984 0
M  V30 37 Pb 1.0117 3.8085 -1.7818 0
M  V30 38 Pb 0.4041 3.6576 -3.0962 0
M  V30 39 Pb -0.8067 4.1511 -2.5371 0
M  V30 40 Pb -0.1245 4.3440 -1.2878 0
M  V30 41 Pd 4.2286 1.6747 -3.2699 0
M  V30 42 Pb 3.6137 1.7852 -4.0455 0
M  V30 43 Pb 3.4456 1.9618 -2.7239 0
M  V30 44 Pb 4.8214 1.6188 -2.4727 0
M  V30 45 Pb 4.9590 1.2333 -3.8174 0
M  V30 46 Ag -2.6492 5.0410 3.4818 0
M  V30 47 Fe -1.4516 4.7945 1.4448 0
M  V30 48 Ag -0.2256 4.5695 -0.5778 0
M  V30 49 Ag 7.5893 -2.5045 -2.2024 0
M  V30 50 Fe 6.7340 -0.3881 -1.6252 0
M  V30 51 Ag 5.3188 1.4671 -1.9443 0
M  V30 52 Ag -5.2053 0.3683 6.7472 0
M  V30 53 Fe -6.0893 2.4334 6.0593 0
M  V30 54 Ag -5.7257 4.4906 4.9856 0
M  V30 55 Ag 1.6120 0.9229 2.5184 0
M  V30 56 Fe 1.9028 2.3483 0.6436 0
M  V30 57 Ag 1.5819 3.6297 -1.3284 0
M  V30 58 Ag -4.0360 -1.0314 5.1602 0
M  V30 59 Fe -4.3506 -0.2918 2.9198 0
M  V30 60 Ag -4.6071 0.6337 0.7413 0
M  V30 61 Ag 0.0348 0.8384 1.2749 0
M  V30 62 Fe 1.3506 1.5031 -0.5827 0
M  V30 63 Ag 2.7947 2.0763 -2.3744 0
M  V30 64 Ba -4.9088 5.0461 2.7142 0
M  V30 65 Ga -4.9112 4.1548 1.5353 0
M  V30 66 Ba -4.9554 3.3065 0.3262 0
M  V30 67 Ba 3.4514 -5.5185 -4.4424 0
M  V30 68 Ga 4.7283 -4.8243 -4.6894 0
M  V30 69 Ba 6.0093 -4.1075 -4.8240 0
M  V30 70 Ba 1.0910 -5.2143 -3.6862 0
M  V30 71 Ga -0.0963 -4.5162 -3.1664 0
M  V30 72 Ba -1.2714 -3.8177 -2.6203 0
M  V30 73 Ba -4.0523 0.5474 -1.5997 0
M  V30 74 Ga -3.3795 -0.7629 -1.6823 0
M  V30 75 Ba -2.7440 -2.0806 -1.8715 0
M  V30 76 Ba 1.7279 -5.8271 -1.4082 0
M  V30 77 Ga 0.5377 -5.1359 -0.8660 0
M  V30 78 Ba -0.6545 -4.4348 -0.3407 0
M  V30 79 Ba 6.8981 -1.7643 -4.3423 0
M  V30 80 Ga 6.1753 -0.4601 -4.2431 0
M  V30 81 Ba 5.5044 0.8750 -4.2156 0
M  V30 82 Ba -1.8583 -0.5210 6.4328 0
M  V30 83 Ga -0.7597 -0.5394 5.4513 0
M  V30 84 Ba 0.3101 -0.5395 4.4385 0
M  V30 85 Ba -3.1715 1.5276 7.1517 0
M  V30 86 Ga -3.3465 2.8519 6.4749 0
M  V30 87 Ba -3.5129 4.1851 5.8138 0
M  V30 88 Ba -4.0297 2.9931 -1.7963 0
M  V30 89 Ga -2.7840 3.6165 -2.2912 0
M  V30 90 Ba -1.5203 4.2222 -2.7615 0
M  V30 91 Ba 0.6196 3.3848 -3.7652 0
M  V30 92 Ga 1.8206 2.6572 -4.2194 0
M  V30 93 Ba 3.0707 1.9394 -4.5338 0
M  V30 94 Ba -1.3100 -0.9000 2.6599 0
M  V30 95 Ga -1.8050 -1.7987 1.5992 0
M  V30 96 Ba -2.2917 -2.6959 0.5332 0
M  V30 97 Ba 4.1261 -6.1931 -2.2572 0
M  V30 98 Ga 5.4486 -5.5617 -2.4317 0
M  V30 99 Ba 6.7210 -4.8522 -2.6677 0
M  V30 END ATOM
M  V30 BEGIN BOND
M  V30 1 1 1 2
M  V30 2 1 1 3
M  V30 3 1 1 4
M  V30 4 1 1 5
M  V30 5 1 6 7
M  V30 6 1 6 8
M  V30 7 1 6 9
M  V30 8 1 6 10
M  V30 9 1 11 12
M  V30 10 1 11 13
M  V30 11 1 11 14
M  V30 12 1 11 15
M  V30 13 1 16 17
M  V30 14 1 16 18
M  V30 15 1 16 19
M  V30 16 1 16 20
M  V30 17 1 21 22
M  V30 18 1 21 23
M  V30 19 1 21 24
M  V30 20 1 21 25
M  V30 21 1 26 27
M  V30 22 1 26 28
M  V30 23 1 26 29
M  V30 24 1 26 30
M  V30 25 1 31 32
M  V30 26 1 31 33
M  V30 27 1 31 34
M  V30 28 1 31 35
M  V30 29 1 36 37
M  V30 30 1 36 38
M  V30 31 1 36 39
M  V30 32 1 36 40
M  V30 33 1 41 42
M  V30 34 1 41 43
M  V30 35 1 41 44
M  V30 36 1 41 45
M  V30 37 1 46 47
M  V30 38 1 47 48
M  V30 39 1 49 50
M  V30 40 1 50 51
M  V30 41 1 52 53
M  V30 42 1 53 54
M  V30 43 1 55 56
M  V30 44 1 56 57
M  V30 45 1 58 59
M  V30 46 1 59 60
M  V30 47 1 61 62
M  V30 48 1 62 63
M  V30 49 1 64 65
M  V30 50 1 65 66
M  V30 51 1 67 68
M  V30 52 1 68 69
M  V30 53 1 70 71
M  V30 54 1 71 72
M  V30 55 1 73 74
M  V30 56 1 74 75
M  V30 57 1 76 77
M  V30 58 1 77 78
M  V30 59 1 79 80
M  V30 60 1 80 81
M  V30 61 1 82 83
M  V30 62 1 83 84
M  V30 63 1 85 86
M  V30 64 1 86 87
M  V30 65 1 88 89
M  V30 66 1 89 90
M  V30 67 1 91 92
M  V30 68 1 92 93
M  V30 69 1 94 95
M  V30 70 1 95 96
M  V30 71 1 97 98
M  V30 72 1 98 99
M  V30 73 1 2 85
M  V30 74 1 3 52
M  V30 75 1 4 82
M  V30 76 1 5 58
M  V30 77 1 7 55
M  V30 78 1 8 61
M  V30 79 1 9 94
M  V30 80 1 10 84
M  V30 81 1 12 97
M  V30 82 1 13 70
M  V30 83 1 14 76
M  V30 84 1 15 67
M  V30 85 1 17 49
M  V30 86 1 18 79
M  V30 87 1 19 69
M  V30 88 1 20 99
M  V30 89 1 22 64
M  V30 90 1 23 46
M  V30 91 1 24 54
M  V30 92 1 25 87
M  V30 93 1 27 66
M  V30 94 1 28 73
M  V30 95 1 29 88
M  V30 96 1 30 60
M  V30 97 1 32 96
M  V30 98 1 33 72
M  V30 99 1 34 75
M  V30 100 1 35 78
M  V30 101 1 37 57
M  V30 102 1 38 91
M  V30 103 1 39 90
M  V30 104 1 40 48
M  V30 105 1 42 93
M  V30 106 1 43 63
M  V30 107 1 44 51
M  V30 108 1 45 81
M  V30 END BOND
M  V30 END CTAB
M  END

$$$$
