
     RDKit          3D

  0  0  0  0  0  0  0  0  0  0999 V3000
M  V30 BEGIN CTAB
M  V30 COUNTS 99 108 0 0 0
M  V30 BEGIN ATOM
M  V30 1 Pd -4.7651 3.4088 1.8891 0
M  V30 2 Pb -4.3847 4.2510 1.5119 0
M  V30 3 Pb -5.4373 3.3459 1.1483 0
M  V30 4 Pb -4.1191 3.4951 2.6480 0
M  V30 5 Pb -5.0454 2.5135 2.2318 0
M  V30 6 Pd -2.0333 -3.2383 -4.6469 0
M  V30 7 Pb -1.2797 -2.7426 -4.2195 0
M  V30 8 Pb -2.8322 -3.6790 -5.0456 0
M  V30 9 Pb -1.8842 -4.0329 -4.0583 0
M  V30 10 Pb -2.3002 -2.4128 -5.1502 0
M  V30 11 Pd 5.1911 0.3129 -2.2002 0
M  V30 12 Pb 4.4633 0.5212 -2.8406 0
M  V30 13 Pb 5.1888 -0.6371 -2.5148 0
M  V30 14 Pb 5.9408 0.0768 -1.5818 0
M  V30 15 Pb 5.1400 1.2660 -1.8312 0
M  V30 16 Pd 6.6633 -1.7564 4.6558 0
M  V30 17 Pb 7.2745 -1.7432 3.8693 0
M  V30 18 Pb 6.9361 -0.8206 4.8627 0
M  V30 19 Pb 6.3077 -2.6421 4.3603 0
M  V30 20 Pb 5.9351 -1.6475 5.3324 0
M  V30 21 Pd 2.1027 -3.5791 -0.6725 0
M  V30 22 Pb 1.6139 -2.9914 -1.3159 0
M  V30 23 Pb 2.8646 -3.5966 -1.3218 0
M  V30 24 Pb 2.6384 -4.0938 -0.0032 0
M  V30 25 Pb 1.3597 -3.5322 -0.0009 0
M  V30 26 Pd 2.4546 3.8770 5.0328 0
M  V30 27 Pb 3.4497 3.8113 5.0474 0
M  V30 28 Pb 2.5149 4.6986 4.4640 0
M  V30 29 Pb 1.4550 3.9174 5.0499 0
M  V30 30 Pb 2.4463 3.0233 5.5582 0
M  V30 31 Pd 1.9830 5.1646 -0.3718 0
M  V30 32 Pb 1.0914 5.6003 -0.2469 0
M  V30 33 Pb 2.2832 5.5685 0.4955 0
M  V30 34 Pb 2.8750 4.6832 -0.5115 0
M  V30 35 Pb 1.6559 4.7961 -1.2322 0
M  V30 36 Pd -3.6128 -3.8743 0.3487 0
M  V30 37 Pb -2.7056 -3.7649 0.7590 0
M  V30 38 Pb -4.5435 -3.9458 -0.0172 0
M  V30 39 Pb -3.2149 -4.4922 -0.3351 0
M  V30 40 Pb -4.0007 -3.2398 1.0176 0
M  V30 41 Pd -8.0147 -0.3743 -4.0492 0
M  V30 42 Pb -7.8963 -1.1968 -4.5982 0
M  V30 43 Pb -8.0548 0.4346 -3.4612 0
M  V30 44 Pb -8.3592 -0.9704 -3.3288 0
M  V30 45 Pb -7.4198 0.0947 -4.7002 0
M  V30 46 Ag -4.0027 4.8338 1.2390 0
M  V30 47 Fe -1.8351 5.4760 0.5148 0
M  V30 48 Ag 0.4043 5.8879 -0.1575 0
M  V30 49 Ag 6.0028 -3.2562 4.0586 0
M  V30 50 Fe 4.5419 -3.9734 2.3297 0
M  V30 51 Ag 3.0520 -4.4139 0.5343 0
M  V30 52 Ag 7.0328 -0.0884 4.9679 0
M  V30 53 Fe 5.7649 1.9119 5.0589 0
M  V30 54 Ag 4.1832 3.6769 5.0913 0
M  V30 55 Ag -2.6132 -1.8074 -5.4705 0
M  V30 56 Fe -4.6515 -0.5840 -5.4676 0
M  V30 57 Ag -6.8352 0.2906 -5.1266 0
M  V30 58 Ag -3.4931 -3.8910 -5.3145 0
M  V30 59 Fe -5.7116 -3.0671 -5.2955 0
M  V30 60 Ag -7.6924 -1.8175 -4.9556 0
M  V30 61 Ag 3.8971 0.7701 -3.2435 0
M  V30 62 Fe 2.4134 2.5709 -2.9432 0
M  V30 63 Ag 1.4904 4.4445 -1.8601 0
M  V30 64 Ag 5.3537 -1.4374 5.7581 0
M  V30 65 Fe 3.8488 0.3900 5.9729 0
M  V30 66 Ag 2.5263 2.3645 5.9131 0
M  V30 67 Ag 6.4965 -0.1517 -1.1325 0
M  V30 68 Fe 7.1830 -0.9150 1.0072 0
M  V30 69 Ag 7.6299 -1.6447 3.2205 0
M  V30 70 Ag -3.6482 3.5887 3.2247 0
M  V30 71 Fe -1.4562 3.7512 4.1257 0
M  V30 72 Ag 0.7058 3.9248 5.0943 0
M  V30 73 Ag -5.1839 1.8143 2.4619 0
M  V30 74 Fe -4.7931 -0.4879 2.0311 0
M  V30 75 Ag -4.3247 -2.7511 1.4858 0
M  V30 76 Ag -5.2704 -3.9106 -0.2122 0
M  V30 77 Fe -6.9645 -2.7942 -1.4499 0
M  V30 78 Ag -8.4250 -1.5106 -2.8158 0
M  V30 79 Ag -5.9614 3.3056 0.6100 0
M  V30 80 Fe -7.0073 2.1769 -1.2017 0
M  V30 81 Ag -8.0423 1.0365 -3.0123 0
M  V30 82 Ba -0.7478 -2.3252 -3.8991 0
M  V30 83 Ga 0.2705 -2.4653 -2.8434 0
M  V30 84 Ba 1.3144 -2.5087 -1.8045 0
M  V30 85 Ba 0.8506 -3.4985 0.5522 0
M  V30 86 Ga -0.6081 -3.5921 0.7678 0
M  V30 87 Ba -2.0449 -3.6678 1.1038 0
M  V30 88 Ba 5.1424 1.9807 -1.5379 0
M  V30 89 Ga 4.2695 3.1212 -1.1001 0
M  V30 90 Ba 3.5673 4.3568 -0.6159 0
M  V30 91 Ba -1.8471 -4.6147 -3.5856 0
M  V30 92 Ga -2.3514 -4.7956 -2.2076 0
M  V30 93 Ba -2.8692 -4.9433 -0.8307 0
M  V30 94 Ba 2.6104 5.3021 4.0268 0
M  V30 95 Ga 2.5301 5.5865 2.5787 0
M  V30 96 Ba 2.4634 5.9150 1.1393 0
M  V30 97 Ba 5.1653 -1.3605 -2.7146 0
M  V30 98 Ga 4.3128 -2.4860 -2.2828 0
M  V30 99 Ba 3.4315 -3.5742 -1.8143 0
M  V30 END ATOM
M  V30 BEGIN BOND
M  V30 1 1 1 2
M  V30 2 1 1 3
M  V30 3 1 1 4
M  V30 4 1 1 5
M  V30 5 1 6 7
M  V30 6 1 6 8
M  V30 7 1 6 9
M  V30 8 1 6 10
M  V30 9 1 11 12
M  V30 10 1 11 13
M  V30 11 1 11 14
M  V30 12 1 11 15
M  V30 13 1 16 17
M  V30 14 1 16 18
M  V30 15 1 16 19
M  V30 16 1 16 20
M  V30 17 1 21 22
M  V30 18 1 21 23
M  V30 19 1 21 24
M  V30 20 1 21 25
M  V30 21 1 26 27
M  V30 22 1 26 28
M  V30 23 1 26 29
M  V30 24 1 26 30
M  V30 25 1 31 32
M  V30 26 1 31 33
M  V30 27 1 31 34
M  V30 28 1 31 35
M  V30 29 1 36 37
M  V30 30 1 36 38
M  V30 31 1 36 39
M  V30 32 1 36 40
M  V30 33 1 41 42
M  V30 34 1 41 43
M  V30 35 1 41 44
M  V30 36 1 41 45
M  V30 37 1 46 47
M  V30 38 1 47 48
M  V30 39 1 49 50
M  V30 40 1 50 51
M  V30 41 1 52 53
M  V30 42 1 53 54
M  V30 43 1 55 56
M  V30 44 1 56 57
M  V30 45 1 58 59
M  V30 46 1 59 60
M  V30 47 1 61 62
M  V30 48 1 62 63
M  V30 49 1 64 65
M  V30 50 1 65 66
M  V30 51 1 67 68
M  V30 52 1 68 69
M  V30 53 1 70 71
M  V30 54 1 71 72
M  V30 55 1 73 74
M  V30 56 1 74 75
M  V30 57 1 76 77
M  V30 58 1 77 78
M  V30 59 1 79 80
M  V30 60 1 80 81
M  V30 61 1 82 83
M  V30 62 1 83 84
M  V30 63 1 85 86
M  V30 64 1 86 87
M  V30 65 1 88 89
M  V30 66 1 89 90
M  V30 67 1 91 92
M  V30 68 1 92 93
M  V30 69 1 94 95
M  V30 70 1 95 96
M  V30 71 1 97 98
M  V30 72 1 98 99
M  V30 73 1 2 46
M  V30 74 1 3 79
M  V30 75 1 4 70
M  V30 76 1 5 73
M  V30 77 1 7 82
M  V30 78 1 8 58
M  V30 79 1 9 91
M  V30 80 1 10 55
M  V30 81 1 12 61
M  V30 82 1 13 97
M  V30 83 1 14 67
M  V30 84 1 15 88
M  V30 85 1 17 69
M  V30 86 1 18 52
M  V30 87 1 19 49
M  V30 88 1 20 64
M  V30 89 1 22 84
M  V30 90 1 23 99
M  V30 91 1 24 51
M  V30 92 1 25 85
M  V30 93 1 27 54
M  V30 94 1 28 94
M  V30 95 1 29 72
M  V30 96 1 30 66
M  V30 97 1 32 48
M  V30 98 1 33 96
M  V30 99 1 34 90
M  V30 100 1 35 63
M  V30 101 1 37 87
M  V30 102 1 38 76
M  V30 103 1 39 93
M  V30 104 1 40 75
M  V30 105 1 42 60
M  V30 106 1 43 81
M  V30 107 1 44 78
M  V30 108 1 45 57
M  V30 END BOND
M  V30 END CTAB
M  END

$$$$
