
     RDKit          3D

  0  0  0  0  0  0  0  0  0  0999 V3000
M  V30 BEGIN CTAB
M  V30 COUNTS 99 108 0 0 0
M  V30 BEGIN ATOM
M  V30 1 Pd -1.2955 3.2285 -0.2867 0
M  V30 2 Pb -1.4619 3.4921 0.6609 0
M  V30 3 Pb -1.1063 2.9854 -1.2391 0
M  V30 4 Pb -2.0242 3.8390 -0.5951 0
M  V30 5 Pb -0.6526 2.5452 0.0639 0
M  V30 6 Pd 6.7794 1.3023 -3.7752 0
M  V30 7 Pb 6.4129 0.4100 -3.5116 0
M  V30 8 Pb 7.0985 2.2067 -4.0564 0
M  V30 9 Pb 7.0620 1.4833 -2.8299 0
M  V30 10 Pb 6.4665 1.1557 -4.7175 0
M  V30 11 Pd -1.7187 -4.1825 4.8233 0
M  V30 12 Pb -1.3704 -3.4655 5.4278 0
M  V30 13 Pb -0.7873 -4.4284 4.5389 0
M  V30 14 Pb -2.0956 -4.8790 4.2140 0
M  V30 15 Pb -2.6460 -3.9548 5.1272 0
M  V30 16 Pd -4.2016 -4.6867 -2.0045 0
M  V30 17 Pb -4.1845 -5.3593 -1.2687 0
M  V30 18 Pb -4.1896 -3.9152 -2.6450 0
M  V30 19 Pb -3.2547 -4.9390 -2.1936 0
M  V30 20 Pb -5.1098 -4.3796 -1.7337 0
M  V30 21 Pd 2.7420 -3.6416 0.9187 0
M  V30 22 Pb 3.2294 -3.3256 0.1037 0
M  V30 23 Pb 2.3212 -4.0302 1.7456 0
M  V30 24 Pb 2.1375 -4.1579 0.3111 0
M  V30 25 Pb 3.3583 -3.0962 1.4865 0
M  V30 26 Pd -6.3130 1.9696 -0.8685 0
M  V30 27 Pb -5.9381 1.5939 -1.7188 0
M  V30 28 Pb -6.6140 2.2296 0.0491 0
M  V30 29 Pb -5.8254 2.8367 -0.9940 0
M  V30 30 Pb -6.7832 1.0972 -0.7577 0
M  V30 31 Pd -3.9277 0.3683 5.9056 0
M  V30 32 Pb -3.4695 1.2310 5.7124 0
M  V30 33 Pb -4.7416 0.7654 5.4781 0
M  V30 34 Pb -4.3630 -0.5244 6.0098 0
M  V30 35 Pb -3.0839 -0.0220 6.2771 0
M  V30 36 Pd 4.1593 1.5979 0.8807 0
M  V30 37 Pb 4.4193 0.7768 1.3924 0
M  V30 38 Pb 3.8971 2.4384 0.4073 0
M  V30 39 Pb 5.1207 1.7667 0.6576 0
M  V30 40 Pb 3.1964 1.3765 1.0296 0
M  V30 41 Pd 3.6868 4.1654 -5.7393 0
M  V30 42 Pb 4.6239 4.5074 -5.7037 0
M  V30 43 Pb 2.7753 3.7615 -5.6775 0
M  V30 44 Pb 3.4564 4.7164 -4.9435 0
M  V30 45 Pb 3.9888 3.4708 -6.3878 0
M  V30 46 Ag 6.1124 -0.2552 -3.3390 0
M  V30 47 Fe 4.8609 -1.6627 -1.8912 0
M  V30 48 Ag 3.6216 -3.1469 -0.5111 0
M  V30 49 Ag -1.5626 3.6524 1.3840 0
M  V30 50 Fe -2.3235 2.8686 3.4880 0
M  V30 51 Ag -3.1514 1.8587 5.4663 0
M  V30 52 Ag -2.5333 -5.1344 -2.2343 0
M  V30 53 Fe -0.3904 -4.8489 -1.2516 0
M  V30 54 Ag 1.7116 -4.5030 -0.2020 0
M  V30 55 Ag -4.2298 -3.2712 -3.0339 0
M  V30 56 Fe -4.8964 -0.9974 -2.8206 0
M  V30 57 Ag -5.6471 1.1966 -2.2883 0
M  V30 58 Ag -5.7403 -4.0461 -1.5163 0
M  V30 59 Fe -6.5850 -1.8779 -1.0675 0
M  V30 60 Ag -7.0799 0.4130 -0.7164 0
M  V30 61 Ag -2.4034 -5.3695 3.7388 0
M  V30 62 Fe -3.2846 -5.7103 1.5625 0
M  V30 63 Ag -4.1037 -5.7885 -0.6627 0
M  V30 64 Ag 3.7054 3.0669 0.0464 0
M  V30 65 Fe 3.4601 4.1747 -2.0363 0
M  V30 66 Ag 3.3243 4.9839 -4.2611 0
M  V30 67 Ag -0.9616 2.8434 -1.9622 0
M  V30 68 Fe 0.5151 3.1039 -3.8041 0
M  V30 69 Ag 2.1069 3.4570 -5.5310 0
M  V30 70 Ag -6.7981 2.3205 0.7709 0
M  V30 71 Fe -6.1369 1.7695 2.9860 0
M  V30 72 Ag -5.2980 1.1118 5.1100 0
M  V30 73 Ba 3.8304 -2.6726 1.8865 0
M  V30 74 Ga 4.2191 -1.2491 1.8421 0
M  V30 75 Ba 4.6096 0.1739 1.7992 0
M  V30 76 Ba -3.3353 -3.7803 5.3722 0
M  V30 77 Ga -4.0141 -2.5167 5.7191 0
M  V30 78 Ba -4.6368 -1.2202 6.0492 0
M  V30 79 Ba 6.2112 1.0980 -5.4241 0
M  V30 80 Ga 5.2578 1.9438 -6.1695 0
M  V30 81 Ba 4.2902 2.8929 -6.7541 0
M  V30 82 Ba 7.2700 2.8902 -4.3108 0
M  V30 83 Ga 6.3806 3.8574 -4.9751 0
M  V30 84 Ba 5.3445 4.6860 -5.6136 0
M  V30 85 Ba -1.1547 -2.9095 5.8835 0
M  V30 86 Ga -1.7759 -1.6146 6.2249 0
M  V30 87 Ba -2.4472 -0.3344 6.5248 0
M  V30 88 Ba 7.2652 1.6402 -2.1220 0
M  V30 89 Ga 6.5591 1.7543 -0.8283 0
M  V30 90 Ba 5.8385 1.8642 0.4577 0
M  V30 91 Ba -2.6142 4.2484 -0.8102 0
M  V30 92 Ga -4.0392 3.8917 -0.9617 0
M  V30 93 Ba -5.4517 3.4820 -1.0965 0
M  V30 94 Ba -0.2494 2.0047 0.3964 0
M  V30 95 Ga 1.1402 1.6343 0.7276 0
M  V30 96 Ba 2.4838 1.1609 1.1135 0
M  V30 97 Ba -0.0891 -4.6509 4.3614 0
M  V30 98 Ga 0.9521 -4.4510 3.3274 0
M  V30 99 Ba 2.0897 -4.3624 2.3836 0
M  V30 END ATOM
M  V30 BEGIN BOND
M  V30 1 1 1 2
M  V30 2 1 1 3
M  V30 3 1 1 4
M  V30 4 1 1 5
M  V30 5 1 6 7
M  V30 6 1 6 8
M  V30 7 1 6 9
M  V30 8 1 6 10
M  V30 9 1 11 12
M  V30 10 1 11 13
M  V30 11 1 11 14
M  V30 12 1 11 15
M  V30 13 1 16 17
M  V30 14 1 16 18
M  V30 15 1 16 19
M  V30 16 1 16 20
M  V30 17 1 21 22
M  V30 18 1 21 23
M  V30 19 1 21 24
M  V30 20 1 21 25
M  V30 21 1 26 27
M  V30 22 1 26 28
M  V30 23 1 26 29
M  V30 24 1 26 30
M  V30 25 1 31 32
M  V30 26 1 31 33
M  V30 27 1 31 34
M  V30 28 1 31 35
M  V30 29 1 36 37
M  V30 30 1 36 38
M  V30 31 1 36 39
M  V30 32 1 36 40
M  V30 33 1 41 42
M  V30 34 1 41 43
M  V30 35 1 41 44
M  V30 36 1 41 45
M  V30 37 1 46 47
M  V30 38 1 47 48
M  V30 39 1 49 50
M  V30 40 1 50 51
M  V30 41 1 52 53
M  V30 42 1 53 54
M  V30 43 1 55 56
M  V30 44 1 56 57
M  V30 45 1 58 59
M  V30 46 1 59 60
M  V30 47 1 61 62
M  V30 48 1 62 63
M  V30 49 1 64 65
M  V30 50 1 65 66
M  V30 51 1 67 68
M  V30 52 1 68 69
M  V30 53 1 70 71
M  V30 54 1 71 72
M  V30 55 1 73 74
M  V30 56 1 74 75
M  V30 57 1 76 77
M  V30 58 1 77 78
M  V30 59 1 79 80
M  V30 60 1 80 81
M  V30 61 1 82 83
M  V30 62 1 83 84
M  V30 63 1 85 86
M  V30 64 1 86 87
M  V30 65 1 88 89
M  V30 66 1 89 90
M  V30 67 1 91 92
M  V30 68 1 92 93
M  V30 69 1 94 95
M  V30 70 1 95 96
M  V30 71 1 97 98
M  V30 72 1 98 99
M  V30 73 1 2 49
M  V30 74 1 3 67
M  V30 75 1 4 91
M  V30 76 1 5 94
M  V30 77 1 7 46
M  V30 78 1 8 82
M  V30 79 1 9 88
M  V30 80 1 10 79
M  V30 81 1 12 85
M  V30 82 1 13 97
M  V30 83 1 14 61
M  V30 84 1 15 76
M  V30 85 1 17 63
M  V30 86 1 18 55
M  V30 87 1 19 52
M  V30 88 1 20 58
M  V30 89 1 22 48
M  V30 90 1 23 99
M  V30 91 1 24 54
M  V30 92 1 25 73
M  V30 93 1 27 57
M  V30 94 1 28 70
M  V30 95 1 29 93
M  V30 96 1 30 60
M  V30 97 1 32 51
M  V30 98 1 33 72
M  V30 99 1 34 78
M  V30 100 1 35 87
M  V30 101 1 37 75
M  V30 102 1 38 64
M  V30 103 1 39 90
M  V30 104 1 40 96
M  V30 105 1 42 84
M  V30 106 1 43 69
M  V30 107 1 44 66
M  V30 108 1 45 81
M  V30 END BOND
M  V30 END CTAB
M  END

$$$$
