
     RDKit          3D

  0  0  0  0  0  0  0  0  0  0999 V3000
M  V30 BEGIN CTAB
M  V30 COUNTS 99 108 0 0 0
M  V30 BEGIN ATOM
M  V30 1 Pd 2.6181 -2.1273 1.2402 0
M  V30 2 Pb 2.3278 -2.5463 2.0955 0
M  V30 3 Pb 2.5339 -1.2508 1.7157 0
M  V30 4 Pb 2.6983 -3.0461 0.8467 0
M  V30 5 Pb 2.8167 -1.7164 0.3447 0
M  V30 6 Pd 4.2241 6.9024 1.6323 0
M  V30 7 Pb 3.2755 6.7866 1.3398 0
M  V30 8 Pb 5.1656 6.9791 1.9674 0
M  V30 9 Pb 4.5430 6.6816 0.7079 0
M  V30 10 Pb 3.9113 7.0814 2.5662 0
M  V30 11 Pd -6.5410 -1.1282 0.6418 0
M  V30 12 Pb -6.7498 -2.0957 0.7995 0
M  V30 13 Pb -6.2754 -0.1796 0.4563 0
M  V30 14 Pb -6.9240 -1.1820 -0.2797 0
M  V30 15 Pb -6.1548 -1.0850 1.5627 0
M  V30 16 Pd -4.2154 -2.7675 -5.9326 0
M  V30 17 Pb -5.1336 -2.4609 -5.6974 0
M  V30 18 Pb -3.2628 -3.0611 -5.9975 0
M  V30 19 Pb -3.9671 -1.8413 -6.2060 0
M  V30 20 Pb -4.4206 -3.6575 -5.5323 0
M  V30 21 Pd -1.3845 3.5487 -2.7410 0
M  V30 22 Pb -1.0444 4.1194 -1.9940 0
M  V30 23 Pb -2.2508 3.4354 -2.2475 0
M  V30 24 Pb -1.7419 3.0424 -3.5263 0
M  V30 25 Pb -0.5090 3.6335 -3.2200 0
M  V30 26 Pd -0.5439 -6.2723 -0.9573 0
M  V30 27 Pb -0.2748 -5.8663 -1.8317 0
M  V30 28 Pb -0.8717 -6.6854 -0.1040 0
M  V30 29 Pb 0.3758 -6.0990 -0.5973 0
M  V30 30 Pb -1.4373 -6.4401 -1.3701 0
M  V30 31 Pd -3.7735 -4.7338 3.1920 0
M  V30 32 Pb -2.9091 -4.5915 3.6671 0
M  V30 33 Pb -3.3981 -5.6042 2.8654 0
M  V30 34 Pb -4.1026 -3.8408 3.5000 0
M  V30 35 Pb -4.6337 -4.8532 2.6932 0
M  V30 36 Pd 4.0983 2.5369 -1.8978 0
M  V30 37 Pb 3.4528 2.8363 -2.6041 0
M  V30 38 Pb 4.7574 2.2424 -1.2093 0
M  V30 39 Pb 4.4355 3.4805 -1.8310 0
M  V30 40 Pb 3.7861 1.5876 -1.9713 0
M  V30 41 Pd 5.5351 4.0210 4.8800 0
M  V30 42 Pb 6.2566 4.6893 4.7135 0
M  V30 43 Pb 4.7460 3.4100 4.8524 0
M  V30 44 Pb 6.0362 3.3450 4.3503 0
M  V30 45 Pb 4.9762 4.7496 5.2679 0
M  V30 46 Ag 2.5577 6.6803 1.1526 0
M  V30 47 Fe 0.8925 5.6170 -0.1644 0
M  V30 48 Ag -0.8140 4.5831 -1.4518 0
M  V30 49 Ag 2.0174 -2.8471 2.7026 0
M  V30 50 Fe -0.0477 -3.7017 3.4887 0
M  V30 51 Ag -2.2324 -4.4862 3.9634 0
M  V30 52 Ag -3.7608 -1.1326 -6.3232 0
M  V30 53 Fe -2.8812 0.8046 -5.2703 0
M  V30 54 Ag -1.9989 2.6976 -4.1415 0
M  V30 55 Ag -2.5606 -3.3066 -5.9092 0
M  V30 56 Fe -1.2163 -4.4303 -4.3060 0
M  V30 57 Ag -0.1561 -5.5662 -2.5097 0
M  V30 58 Ag -4.4984 -4.2905 -5.1434 0
M  V30 59 Fe -3.4124 -5.5364 -3.4425 0
M  V30 60 Ag -2.0764 -6.5236 -1.7497 0
M  V30 61 Ag -7.1772 -1.2194 -0.9837 0
M  V30 62 Fe -6.6272 -1.6948 -3.2417 0
M  V30 63 Ag -5.7742 -2.2374 -5.3871 0
M  V30 64 Ag 5.2374 2.0314 -0.6768 0
M  V30 65 Fe 5.9175 2.3296 1.5732 0
M  V30 66 Ag 6.3203 2.8833 3.8410 0
M  V30 67 Ag 2.4492 -0.6703 2.1858 0
M  V30 68 Fe 3.2883 1.1552 3.4539 0
M  V30 69 Ag 4.1489 2.9819 4.7057 0
M  V30 70 Ag -6.0595 0.5198 0.2810 0
M  V30 71 Fe -4.4812 1.9452 -0.7840 0
M  V30 72 Ag -2.8890 3.3494 -1.8566 0
M  V30 73 Ba 0.1389 3.6784 -3.5982 0
M  V30 74 Ga 1.5622 3.3739 -3.3428 0
M  V30 75 Ba 2.9991 3.0888 -3.1488 0
M  V30 76 Ba -5.8677 -1.0926 2.2552 0
M  V30 77 Ga -5.1041 -2.1088 3.0032 0
M  V30 78 Ba -4.3433 -3.1601 3.7040 0
M  V30 79 Ba 3.7145 7.1636 3.2859 0
M  V30 80 Ga 4.0733 6.3143 4.4342 0
M  V30 81 Ba 4.5470 5.3387 5.4299 0
M  V30 82 Ba 5.8462 7.0011 2.2870 0
M  V30 83 Ga 6.3785 6.1649 3.3797 0
M  V30 84 Ba 6.7151 5.2253 4.4655 0
M  V30 85 Ba -6.8689 -2.8288 0.9197 0
M  V30 86 Ga -6.0965 -3.8795 1.6154 0
M  V30 87 Ba -5.2868 -4.8931 2.3234 0
M  V30 88 Ba 4.7828 6.5114 0.0152 0
M  V30 89 Ga 4.7259 5.3336 -0.8783 0
M  V30 90 Ba 4.6991 4.1869 -1.8127 0
M  V30 91 Ba 2.7710 -3.7599 0.6181 0
M  V30 92 Ga 1.9014 -4.8441 0.1125 0
M  V30 93 Ba 1.0897 -5.9715 -0.3950 0
M  V30 94 Ba 2.9115 -1.4761 -0.3648 0
M  V30 95 Ga 3.2555 -0.2707 -1.1505 0
M  V30 96 Ba 3.5853 0.8660 -2.0385 0
M  V30 97 Ba -1.1768 -7.0165 0.5001 0
M  V30 98 Ga -2.1156 -6.6186 1.5723 0
M  V30 99 Ba -3.0533 -6.2387 2.6518 0
M  V30 END ATOM
M  V30 BEGIN BOND
M  V30 1 1 1 2
M  V30 2 1 1 3
M  V30 3 1 1 4
M  V30 4 1 1 5
M  V30 5 1 6 7
M  V30 6 1 6 8
M  V30 7 1 6 9
M  V30 8 1 6 10
M  V30 9 1 11 12
M  V30 10 1 11 13
M  V30 11 1 11 14
M  V30 12 1 11 15
M  V30 13 1 16 17
M  V30 14 1 16 18
M  V30 15 1 16 19
M  V30 16 1 16 20
M  V30 17 1 21 22
M  V30 18 1 21 23
M  V30 19 1 21 24
M  V30 20 1 21 25
M  V30 21 1 26 27
M  V30 22 1 26 28
M  V30 23 1 26 29
M  V30 24 1 26 30
M  V30 25 1 31 32
M  V30 26 1 31 33
M  V30 27 1 31 34
M  V30 28 1 31 35
M  V30 29 1 36 37
M  V30 30 1 36 38
M  V30 31 1 36 39
M  V30 32 1 36 40
M  V30 33 1 41 42
M  V30 34 1 41 43
M  V30 35 1 41 44
M  V30 36 1 41 45
M  V30 37 1 46 47
M  V30 38 1 47 48
M  V30 39 1 49 50
M  V30 40 1 50 51
M  V30 41 1 52 53
M  V30 42 1 53 54
M  V30 43 1 55 56
M  V30 44 1 56 57
M  V30 45 1 58 59
M  V30 46 1 59 60
M  V30 47 1 61 62
M  V30 48 1 62 63
M  V30 49 1 64 65
M  V30 50 1 65 66
M  V30 51 1 67 68
M  V30 52 1 68 69
M  V30 53 1 70 71
M  V30 54 1 71 72
M  V30 55 1 73 74
M  V30 56 1 74 75
M  V30 57 1 76 77
M  V30 58 1 77 78
M  V30 59 1 79 80
M  V30 60 1 80 81
M  V30 61 1 82 83
M  V30 62 1 83 84
M  V30 63 1 85 86
M  V30 64 1 86 87
M  V30 65 1 88 89
M  V30 66 1 89 90
M  V30 67 1 91 92
M  V30 68 1 92 93
M  V30 69 1 94 95
M  V30 70 1 95 96
M  V30 71 1 97 98
M  V30 72 1 98 99
M  V30 73 1 2 49
M  V30 74 1 3 67
M  V30 75 1 4 91
M  V30 76 1 5 94
M  V30 77 1 7 46
M  V30 78 1 8 82
M  V30 79 1 9 88
M  V30 80 1 10 79
M  V30 81 1 12 85
M  V30 82 1 13 70
M  V30 83 1 14 61
M  V30 84 1 15 76
M  V30 85 1 17 63
M  V30 86 1 18 55
M  V30 87 1 19 52
M  V30 88 1 20 58
M  V30 89 1 22 48
M  V30 90 1 23 72
M  V30 91 1 24 54
M  V30 92 1 25 73
M  V30 93 1 27 57
M  V30 94 1 28 97
M  V30 95 1 29 93
M  V30 96 1 30 60
M  V30 97 1 32 51
M  V30 98 1 33 99
M  V30 99 1 34 78
M  V30 100 1 35 87
M  V30 101 1 37 75
M  V30 102 1 38 64
M  V30 103 1 39 90
M  V30 104 1 40 96
M  V30 105 1 42 84
M  V30 106 1 43 69
M  V30 107 1 44 66
M  V30 108 1 45 81
M  V30 END BOND
M  V30 END CTAB
M  END

$$$$
