
     RDKit          3D

  0  0  0  0  0  0  0  0  0  0999 V3000
M  V30 BEGIN CTAB
M  V30 COUNTS 99 108 0 0 0
M  V30 BEGIN ATOM
M  V30 1 Pd 4.2412 9.8088 -0.7279 0
M  V30 2 Pb 4.6692 8.9671 -0.3955 0
M  V30 3 Pb 3.8731 10.0153 0.1882 0
M  V30 4 Pb 3.7714 10.6150 -1.0819 0
M  V30 5 Pb 4.4137 9.4903 -1.6537 0
M  V30 6 Pd -3.7139 -8.0991 -0.8568 0
M  V30 7 Pb -4.6383 -7.7583 -0.6519 0
M  V30 8 Pb -3.5576 -8.0962 0.1305 0
M  V30 9 Pb -3.9025 -7.8655 -1.8102 0
M  V30 10 Pb -2.7824 -8.4019 -1.0582 0
M  V30 11 Pd 0.6597 -9.2038 2.1379 0
M  V30 12 Pb 1.6373 -9.0033 1.9601 0
M  V30 13 Pb 0.8506 -9.2436 3.1173 0
M  V30 14 Pb 0.4644 -9.1844 1.1573 0
M  V30 15 Pb -0.2896 -8.9622 2.3395 0
M  V30 16 Pd -1.2829 -1.5964 -0.5838 0
M  V30 17 Pb -0.4774 -2.1460 -0.8062 0
M  V30 18 Pb -1.5293 -1.5683 -1.5452 0
M  V30 19 Pb -0.8872 -1.3666 0.2979 0
M  V30 20 Pb -2.1010 -1.0669 -0.3587 0
M  V30 21 Pd 3.1386 4.2106 0.4726 0
M  V30 22 Pb 2.6123 3.4034 0.7469 0
M  V30 23 Pb 3.5354 3.7197 -0.3130 0
M  V30 24 Pb 3.7770 4.9749 0.3354 0
M  V30 25 Pb 2.6640 4.6941 1.2104 0
M  V30 26 Pd 2.2987 -4.4563 2.2986 0
M  V30 27 Pb 1.3983 -4.0730 2.5044 0
M  V30 28 Pb 2.9485 -5.2056 2.0891 0
M  V30 29 Pb 2.4524 -4.6018 3.2745 0
M  V30 30 Pb 2.1547 -4.2921 1.3227 0
M  V30 31 Pd -6.1515 -3.2151 0.1579 0
M  V30 32 Pb -6.2392 -3.1844 -0.8374 0
M  V30 33 Pb -5.8009 -2.2805 0.2064 0
M  V30 34 Pb -5.8940 -3.4150 1.1028 0
M  V30 35 Pb -6.4434 -4.1752 0.0957 0
M  V30 36 Pd -0.4636 8.4671 1.1544 0
M  V30 37 Pb -1.0326 7.9237 0.5353 0
M  V30 38 Pb -0.1054 7.6660 1.6392 0
M  V30 39 Pb -0.7726 9.2907 0.6831 0
M  V30 40 Pb 0.2512 9.0121 1.6132 0
M  V30 41 Pd 1.2620 3.9395 -4.0821 0
M  V30 42 Pb 0.7218 3.1014 -4.1679 0
M  V30 43 Pb 2.1083 3.4298 -3.9290 0
M  V30 44 Pb 1.8171 4.7703 -4.1167 0
M  V30 45 Pb 0.4155 4.4596 -3.9685 0
M  V30 46 Ag -3.5665 -7.8657 0.8422 0
M  V30 47 Fe -4.4889 -5.8678 1.7247 0
M  V30 48 Ag -5.6070 -3.7774 1.6910 0
M  V30 49 Ag -1.5822 -1.3521 -2.2540 0
M  V30 50 Fe -0.7127 0.5169 -3.4264 0
M  V30 51 Ag 0.3064 2.4846 -4.2737 0
M  V30 52 Ag -1.3666 7.5666 -0.0360 0
M  V30 53 Fe -0.9345 6.1934 -1.9278 0
M  V30 54 Ag -0.1971 4.8154 -3.7191 0
M  V30 55 Ag -4.1435 -7.4796 -2.4041 0
M  V30 56 Fe -5.2296 -5.3725 -2.4409 0
M  V30 57 Ag -6.1842 -3.3917 -1.5542 0
M  V30 58 Ag -0.8484 -8.4856 2.4909 0
M  V30 59 Fe -0.5858 -6.1325 2.6730 0
M  V30 60 Ag 0.6614 -4.1119 2.6383 0
M  V30 61 Ag -0.5129 -1.0333 0.8483 0
M  V30 62 Fe 0.8883 0.8738 1.0400 0
M  V30 63 Ag 2.2632 2.8100 1.0513 0
M  V30 64 Ag 1.0450 -9.1012 3.8192 0
M  V30 65 Fe 1.8988 -7.0556 4.5989 0
M  V30 66 Ag 2.5030 -4.8758 3.9624 0
M  V30 67 Ag 4.4162 9.1499 -2.3158 0
M  V30 68 Fe 3.3942 7.2714 -3.3423 0
M  V30 69 Ag 2.2749 5.3599 -4.1923 0
M  V30 70 Ag 3.2630 11.1212 -1.2726 0
M  V30 71 Fe 0.9683 11.0474 -0.7519 0
M  V30 72 Ag -0.8146 9.9241 0.2979 0
M  V30 73 Ba 2.3358 -8.7033 1.8495 0
M  V30 74 Ga 2.8516 -7.2928 1.8916 0
M  V30 75 Ba 3.3158 -5.8649 1.9460 0
M  V30 76 Ba 3.5233 10.1418 0.8507 0
M  V30 77 Ga 2.1825 9.7793 1.3890 0
M  V30 78 Ba 0.8356 9.4032 1.9021 0
M  V30 79 Ba 3.7997 3.3536 -0.9217 0
M  V30 80 Ga 3.3123 3.1982 -2.3136 0
M  V30 81 Ba 2.7389 3.1074 -3.6778 0
M  V30 82 Ba 2.2463 4.9969 1.7577 0
M  V30 83 Ga 1.2333 6.0673 1.8761 0
M  V30 84 Ba 0.2135 7.1233 2.0522 0
M  V30 85 Ba 5.0001 8.3255 -0.1881 0
M  V30 86 Ga 4.6012 6.9202 0.0467 0
M  V30 87 Ba 4.3292 5.4896 0.3065 0
M  V30 88 Ba -2.7274 -0.6900 -0.1901 0
M  V30 89 Ga -4.1238 -1.1106 0.0278 0
M  V30 90 Ba -5.5015 -1.5941 0.2341 0
M  V30 91 Ba -2.0791 -8.6152 -1.2080 0
M  V30 92 Ga -0.8823 -8.8997 -0.3939 0
M  V30 93 Ba 0.3129 -9.1835 0.4227 0
M  V30 94 Ba 0.1188 -2.5697 -0.9734 0
M  V30 95 Ga 1.0861 -3.3631 -0.1918 0
M  V30 96 Ba 2.0522 -4.1557 0.5923 0
M  V30 97 Ba -5.3328 -7.5018 -0.4979 0
M  V30 98 Ga -5.9721 -6.1913 -0.2281 0
M  V30 99 Ba -6.6489 -4.9006 0.0459 0
M  V30 END ATOM
M  V30 BEGIN BOND
M  V30 1 1 1 2
M  V30 2 1 1 3
M  V30 3 1 1 4
M  V30 4 1 1 5
M  V30 5 1 6 7
M  V30 6 1 6 8
M  V30 7 1 6 9
M  V30 8 1 6 10
M  V30 9 1 11 12
M  V30 10 1 11 13
M  V30 11 1 11 14
M  V30 12 1 11 15
M  V30 13 1 16 17
M  V30 14 1 16 18
M  V30 15 1 16 19
M  V30 16 1 16 20
M  V30 17 1 21 22
M  V30 18 1 21 23
M  V30 19 1 21 24
M  V30 20 1 21 25
M  V30 21 1 26 27
M  V30 22 1 26 28
M  V30 23 1 26 29
M  V30 24 1 26 30
M  V30 25 1 31 32
M  V30 26 1 31 33
M  V30 27 1 31 34
M  V30 28 1 31 35
M  V30 29 1 36 37
M  V30 30 1 36 38
M  V30 31 1 36 39
M  V30 32 1 36 40
M  V30 33 1 41 42
M  V30 34 1 41 43
M  V30 35 1 41 44
M  V30 36 1 41 45
M  V30 37 1 46 47
M  V30 38 1 47 48
M  V30 39 1 49 50
M  V30 40 1 50 51
M  V30 41 1 52 53
M  V30 42 1 53 54
M  V30 43 1 55 56
M  V30 44 1 56 57
M  V30 45 1 58 59
M  V30 46 1 59 60
M  V30 47 1 61 62
M  V30 48 1 62 63
M  V30 49 1 64 65
M  V30 50 1 65 66
M  V30 51 1 67 68
M  V30 52 1 68 69
M  V30 53 1 70 71
M  V30 54 1 71 72
M  V30 55 1 73 74
M  V30 56 1 74 75
M  V30 57 1 76 77
M  V30 58 1 77 78
M  V30 59 1 79 80
M  V30 60 1 80 81
M  V30 61 1 82 83
M  V30 62 1 83 84
M  V30 63 1 85 86
M  V30 64 1 86 87
M  V30 65 1 88 89
M  V30 66 1 89 90
M  V30 67 1 91 92
M  V30 68 1 92 93
M  V30 69 1 94 95
M  V30 70 1 95 96
M  V30 71 1 97 98
M  V30 72 1 98 99
M  V30 73 1 2 85
M  V30 74 1 3 76
M  V30 75 1 4 70
M  V30 76 1 5 67
M  V30 77 1 7 97
M  V30 78 1 8 46
M  V30 79 1 9 55
M  V30 80 1 10 91
M  V30 81 1 12 73
M  V30 82 1 13 64
M  V30 83 1 14 93
M  V30 84 1 15 58
M  V30 85 1 17 94
M  V30 86 1 18 49
M  V30 87 1 19 61
M  V30 88 1 20 88
M  V30 89 1 22 63
M  V30 90 1 23 79
M  V30 91 1 24 87
M  V30 92 1 25 82
M  V30 93 1 27 60
M  V30 94 1 28 75
M  V30 95 1 29 66
M  V30 96 1 30 96
M  V30 97 1 32 57
M  V30 98 1 33 90
M  V30 99 1 34 48
M  V30 100 1 35 99
M  V30 101 1 37 52
M  V30 102 1 38 84
M  V30 103 1 39 72
M  V30 104 1 40 78
M  V30 105 1 42 51
M  V30 106 1 43 81
M  V30 107 1 44 69
M  V30 108 1 45 54
M  V30 END BOND
M  V30 END CTAB
M  END

$$$$
