
     RDKit          3D

  0  0  0  0  0  0  0  0  0  0999 V3000
M  V30 BEGIN CTAB
M  V30 COUNTS 99 108 0 0 0
M  V30 BEGIN ATOM
M  V30 1 Pd 2.2012 2.2437 2.8462 0
M  V30 2 Pb 2.1261 3.0046 2.1968 0
M  V30 3 Pb 3.1948 2.3125 2.8125 0
M  V30 4 Pb 1.2040 2.2253 2.9097 0
M  V30 5 Pb 2.3072 1.4148 3.3985 0
M  V30 6 Pd -2.9063 0.1324 5.1269 0
M  V30 7 Pb -2.4438 -0.6728 4.7552 0
M  V30 8 Pb -3.5693 -0.4897 5.5341 0
M  V30 9 Pb -2.3442 0.7613 4.5889 0
M  V30 10 Pb -3.5342 0.8816 5.3266 0
M  V30 11 Pd -6.4733 -3.1732 0.8295 0
M  V30 12 Pb -6.1561 -3.0730 -0.1107 0
M  V30 13 Pb -6.7229 -3.2287 1.7931 0
M  V30 14 Pb -7.2271 -2.5419 0.6535 0
M  V30 15 Pb -5.6038 -3.6002 1.0811 0
M  V30 16 Pd -0.9303 2.8676 -1.3299 0
M  V30 17 Pb -1.7361 2.3182 -1.5694 0
M  V30 18 Pb -0.7455 3.0410 -2.3030 0
M  V30 19 Pb -1.1340 2.7283 -0.3641 0
M  V30 20 Pb -0.1476 3.4226 -1.0405 0
M  V30 21 Pd -0.0125 -2.6012 -3.0266 0
M  V30 22 Pb -0.0726 -2.6582 -2.0310 0
M  V30 23 Pb 0.0334 -2.4674 -4.0149 0
M  V30 24 Pb -1.0085 -2.5643 -3.0874 0
M  V30 25 Pb 0.9842 -2.6826 -2.9654 0
M  V30 26 Pd -5.3804 1.5119 1.3792 0
M  V30 27 Pb -4.4546 1.7918 1.6240 0
M  V30 28 Pb -5.0575 1.2910 0.4546 0
M  V30 29 Pb -6.2966 1.1671 1.1498 0
M  V30 30 Pb -5.6526 1.7805 2.3063 0
M  V30 31 Pd 7.7344 0.0773 -1.2221 0
M  V30 32 Pb 7.5496 0.9038 -1.7503 0
M  V30 33 Pb 7.7633 -0.7456 -0.6569 0
M  V30 34 Pb 7.5522 -0.4415 -2.0558 0
M  V30 35 Pb 7.7798 0.6189 -0.3901 0
M  V30 36 Pd 3.5860 -2.3414 1.0136 0
M  V30 37 Pb 4.5859 -2.4084 1.0835 0
M  V30 38 Pb 3.6494 -2.5621 0.0388 0
M  V30 39 Pb 3.4903 -2.0645 1.9736 0
M  V30 40 Pb 2.5888 -2.3578 0.9462 0
M  V30 41 Pd 2.3260 1.2037 -5.5888 0
M  V30 42 Pb 1.5776 1.8568 -5.4540 0
M  V30 43 Pb 3.0767 0.5447 -5.6434 0
M  V30 44 Pb 2.9957 1.8552 -5.2358 0
M  V30 45 Pb 1.6985 0.5098 -5.9388 0
M  V30 46 Ag 7.2900 1.4809 -2.1493 0
M  V30 47 Fe 5.4840 2.0496 -3.5793 0
M  V30 48 Ag 3.5655 2.2551 -4.9604 0
M  V30 49 Ag 3.9392 2.3574 2.7819 0
M  V30 50 Fe 5.9106 1.7630 1.6114 0
M  V30 51 Ag 7.6838 1.0151 0.2314 0
M  V30 52 Ag -5.8608 -2.9752 -0.7901 0
M  V30 53 Fe -3.8435 -2.7619 -2.0203 0
M  V30 54 Ag -1.7559 -2.5640 -3.1300 0
M  V30 55 Ag -4.1292 -0.9592 5.6779 0
M  V30 56 Fe -5.6269 -2.2195 4.3465 0
M  V30 57 Ag -6.7799 -3.2199 2.5367 0
M  V30 58 Ag -2.2760 -1.3113 4.3981 0
M  V30 59 Fe -3.3911 -2.7318 2.8538 0
M  V30 60 Ag -4.9221 -3.7581 1.3539 0
M  V30 61 Ag 7.3095 -0.7417 -2.6973 0
M  V30 62 Fe 5.5458 -0.4689 -4.2630 0
M  V30 63 Ag 3.6647 0.0804 -5.6035 0
M  V30 64 Ba -2.3479 1.9054 -1.7258 0
M  V30 65 Ga -3.5711 1.5242 -0.9831 0
M  V30 66 Ba -4.7927 1.1457 -0.2363 0
M  V30 67 Ba -0.6455 3.1942 -3.0359 0
M  V30 68 Ga 0.2021 2.7519 -4.1660 0
M  V30 69 Ba 1.0216 2.3489 -5.3311 0
M  V30 70 Ba 2.4482 0.7682 3.7561 0
M  V30 71 Ga 2.9061 -0.5452 3.2510 0
M  V30 72 Ba 3.3634 -1.8313 2.6793 0
M  V30 73 Ba -1.2960 2.6502 0.3608 0
M  V30 74 Ga -2.5226 2.3121 1.0994 0
M  V30 75 Ba -3.7572 1.9728 1.8240 0
M  V30 76 Ba -4.0929 1.3788 5.3595 0
M  V30 77 Ga -4.9769 1.7532 4.2372 0
M  V30 78 Ba -5.7613 2.0164 3.0134 0
M  V30 79 Ba 7.7087 -1.3260 -0.1859 0
M  V30 80 Ga 6.5294 -1.9313 0.4686 0
M  V30 81 Ba 5.3327 -2.5152 1.1108 0
M  V30 82 Ba 0.0430 -2.3094 -4.7464 0
M  V30 83 Ga 0.6412 -1.1942 -5.5002 0
M  V30 84 Ba 1.2683 -0.0511 -6.1859 0
M  V30 85 Ba 2.0819 3.5369 1.6656 0
M  V30 86 Ga 1.2575 3.7043 0.4487 0
M  V30 87 Ba 0.4137 3.8374 -0.7592 0
M  V30 88 Ba 1.7287 -2.7711 -2.9094 0
M  V30 89 Ga 2.7086 -2.7346 -1.8043 0
M  V30 90 Ba 3.6885 -2.6981 -0.6992 0
M  V30 91 Ba 0.4580 2.2928 2.9315 0
M  V30 92 Ga -0.7337 1.7124 3.5790 0
M  V30 93 Ba -2.0262 1.2611 4.1278 0
M  V30 94 Ba -0.1182 -2.6579 -1.2833 0
M  V30 95 Ga 0.8609 -2.5357 -0.1880 0
M  V30 96 Ba 1.8423 -2.4131 0.9052 0
M  V30 97 Ba -7.7028 -1.9686 0.5666 0
M  V30 98 Ga -7.3985 -0.5322 0.7496 0
M  V30 99 Ba -6.9642 0.8662 0.9638 0
M  V30 END ATOM
M  V30 BEGIN BOND
M  V30 1 1 1 2
M  V30 2 1 1 3
M  V30 3 1 1 4
M  V30 4 1 1 5
M  V30 5 1 6 7
M  V30 6 1 6 8
M  V30 7 1 6 9
M  V30 8 1 6 10
M  V30 9 1 11 12
M  V30 10 1 11 13
M  V30 11 1 11 14
M  V30 12 1 11 15
M  V30 13 1 16 17
M  V30 14 1 16 18
M  V30 15 1 16 19
M  V30 16 1 16 20
M  V30 17 1 21 22
M  V30 18 1 21 23
M  V30 19 1 21 24
M  V30 20 1 21 25
M  V30 21 1 26 27
M  V30 22 1 26 28
M  V30 23 1 26 29
M  V30 24 1 26 30
M  V30 25 1 31 32
M  V30 26 1 31 33
M  V30 27 1 31 34
M  V30 28 1 31 35
M  V30 29 1 36 37
M  V30 30 1 36 38
M  V30 31 1 36 39
M  V30 32 1 36 40
M  V30 33 1 41 42
M  V30 34 1 41 43
M  V30 35 1 41 44
M  V30 36 1 41 45
M  V30 37 1 46 47
M  V30 38 1 47 48
M  V30 39 1 49 50
M  V30 40 1 50 51
M  V30 41 1 52 53
M  V30 42 1 53 54
M  V30 43 1 55 56
M  V30 44 1 56 57
M  V30 45 1 58 59
M  V30 46 1 59 60
M  V30 47 1 61 62
M  V30 48 1 62 63
M  V30 49 1 64 65
M  V30 50 1 65 66
M  V30 51 1 67 68
M  V30 52 1 68 69
M  V30 53 1 70 71
M  V30 54 1 71 72
M  V30 55 1 73 74
M  V30 56 1 74 75
M  V30 57 1 76 77
M  V30 58 1 77 78
M  V30 59 1 79 80
M  V30 60 1 80 81
M  V30 61 1 82 83
M  V30 62 1 83 84
M  V30 63 1 85 86
M  V30 64 1 86 87
M  V30 65 1 88 89
M  V30 66 1 89 90
M  V30 67 1 91 92
M  V30 68 1 92 93
M  V30 69 1 94 95
M  V30 70 1 95 96
M  V30 71 1 97 98
M  V30 72 1 98 99
M  V30 73 1 2 85
M  V30 74 1 3 49
M  V30 75 1 4 91
M  V30 76 1 5 70
M  V30 77 1 7 58
M  V30 78 1 8 55
M  V30 79 1 9 93
M  V30 80 1 10 76
M  V30 81 1 12 52
M  V30 82 1 13 57
M  V30 83 1 14 97
M  V30 84 1 15 60
M  V30 85 1 17 64
M  V30 86 1 18 67
M  V30 87 1 19 73
M  V30 88 1 20 87
M  V30 89 1 22 94
M  V30 90 1 23 82
M  V30 91 1 24 54
M  V30 92 1 25 88
M  V30 93 1 27 75
M  V30 94 1 28 66
M  V30 95 1 29 99
M  V30 96 1 30 78
M  V30 97 1 32 46
M  V30 98 1 33 79
M  V30 99 1 34 61
M  V30 100 1 35 51
M  V30 101 1 37 81
M  V30 102 1 38 90
M  V30 103 1 39 72
M  V30 104 1 40 96
M  V30 105 1 42 69
M  V30 106 1 43 63
M  V30 107 1 44 48
M  V30 108 1 45 84
M  V30 END BOND
M  V30 END CTAB
M  END

$$$$
