
     RDKit          3D

  0  0  0  0  0  0  0  0  0  0999 V3000
M  V30 BEGIN CTAB
M  V30 COUNTS 99 108 0 0 0
M  V30 BEGIN ATOM
M  V30 1 Pd 1.9953 5.4045 -1.1922 0
M  V30 2 Pb 2.5431 5.3586 -0.3585 0
M  V30 3 Pb 2.7448 4.9732 -1.6997 0
M  V30 4 Pb 1.2623 5.8719 -0.6916 0
M  V30 5 Pb 1.4212 5.3833 -2.0101 0
M  V30 6 Pd 3.4032 -3.7690 -2.1978 0
M  V30 7 Pb 2.8818 -3.3147 -1.4746 0
M  V30 8 Pb 4.2622 -3.4043 -1.8354 0
M  V30 9 Pb 2.5484 -4.0403 -2.6339 0
M  V30 10 Pb 3.9148 -4.1211 -2.9785 0
M  V30 11 Pd -1.6268 -3.9684 4.1349 0
M  V30 12 Pb -0.6786 -3.6544 4.0821 0
M  V30 13 Pb -1.4864 -4.5968 3.3688 0
M  V30 14 Pb -2.5902 -4.2339 4.1845 0
M  V30 15 Pb -1.7529 -3.2912 4.8604 0
M  V30 16 Pd -5.6160 -1.6439 1.9550 0
M  V30 17 Pb -5.6612 -2.4566 2.5351 0
M  V30 18 Pb -5.4889 -0.8269 1.3894 0
M  V30 19 Pb -5.7681 -2.2122 1.1475 0
M  V30 20 Pb -5.3963 -1.0727 2.7435 0
M  V30 21 Pd -1.9480 -2.9581 -0.9226 0
M  V30 22 Pb -1.0388 -2.6223 -0.6675 0
M  V30 23 Pb -1.7179 -3.8278 -0.4846 0
M  V30 24 Pb -2.8740 -3.2836 -1.1059 0
M  V30 25 Pb -2.2285 -2.0759 -1.3111 0
M  V30 26 Pd -2.0542 4.6943 2.7861 0
M  V30 27 Pb -2.5699 4.2801 2.0341 0
M  V30 28 Pb -1.5557 5.0644 3.5709 0
M  V30 29 Pb -1.6490 5.3795 2.1767 0
M  V30 30 Pb -2.4768 4.0131 3.3821 0
M  V30 31 Pd 1.5521 2.3779 5.5418 0
M  V30 32 Pb 2.2358 2.8734 5.0093 0
M  V30 33 Pb 1.1331 3.2583 5.7612 0
M  V30 34 Pb 0.8308 1.8688 6.0120 0
M  V30 35 Pb 1.9178 1.4921 5.2563 0
M  V30 36 Pd -1.3699 0.3396 -5.3625 0
M  V30 37 Pb -1.9815 0.3372 -4.5725 0
M  V30 38 Pb -0.6598 0.3398 -6.0658 0
M  V30 39 Pb -1.3333 -0.6560 -5.3132 0
M  V30 40 Pb -1.3331 1.3376 -5.3404 0
M  V30 41 Pd 5.6802 -0.5494 -4.7807 0
M  V30 42 Pb 6.1141 -0.8218 -3.9214 0
M  V30 43 Pb 5.6445 0.4059 -4.4816 0
M  V30 44 Pb 5.1284 -0.3209 -5.5818 0
M  V30 45 Pb 5.6923 -1.5109 -5.0553 0
M  V30 46 Ag 2.9269 5.2702 0.2781 0
M  V30 47 Fe 2.9104 4.3082 2.4472 0
M  V30 48 Ag 2.6927 3.2717 4.5707 0
M  V30 49 Ag -5.3332 -0.1901 1.0209 0
M  V30 50 Fe -4.1925 1.8908 1.1639 0
M  V30 51 Ag -2.9846 3.9052 1.5314 0
M  V30 52 Ag -1.7819 -2.7365 5.3650 0
M  V30 53 Fe -0.8243 -0.6418 5.9465 0
M  V30 54 Ag 0.2992 1.4218 6.2956 0
M  V30 55 Ag 0.0045 -3.3445 4.0811 0
M  V30 56 Fe 1.1810 -1.3294 4.5235 0
M  V30 57 Ag 2.1010 0.8001 5.0327 0
M  V30 58 Ag -5.1781 -0.5999 3.2806 0
M  V30 59 Fe -4.0172 1.4348 3.6582 0
M  V30 60 Ag -2.8231 3.4818 3.7803 0
M  V30 61 Ag 1.9089 -4.1448 -3.0052 0
M  V30 62 Fe 0.2306 -2.9247 -4.1521 0
M  V30 63 Ag -1.2397 -1.3885 -5.2005 0
M  V30 64 Ag 0.9739 5.3116 -2.6070 0
M  V30 65 Fe -0.1786 3.7781 -4.0055 0
M  V30 66 Ag -1.2438 2.0782 -5.2747 0
M  V30 67 Ag -0.0602 0.3457 -6.5152 0
M  V30 68 Fe 2.3020 0.1104 -6.4859 0
M  V30 69 Ag 4.6305 -0.1760 -6.1226 0
M  V30 70 Ag 3.3247 4.6780 -2.0777 0
M  V30 71 Fe 4.4450 2.8826 -3.1610 0
M  V30 72 Ag 5.6083 1.1219 -4.2559 0
M  V30 73 Ba 2.4876 -2.9224 -0.9700 0
M  V30 74 Ga 1.0551 -2.6751 -0.7064 0
M  V30 75 Ba -0.3665 -2.4015 -0.4120 0
M  V30 76 Ba -2.5204 -1.4323 -1.5746 0
M  V30 77 Ga -2.4393 -0.5645 -2.7679 0
M  V30 78 Ba -2.3867 0.3312 -3.9421 0
M  V30 79 Ba -5.8183 -2.6455 0.5387 0
M  V30 80 Ga -4.7545 -3.1030 -0.3714 0
M  V30 81 Ba -3.5912 -3.4795 -1.1923 0
M  V30 82 Ba 4.3114 -4.2858 -3.5902 0
M  V30 83 Ga 5.0258 -3.3325 -4.4556 0
M  V30 84 Ba 5.6797 -2.2457 -5.2037 0
M  V30 85 Ba 4.9140 -3.0838 -1.6433 0
M  V30 86 Ga 5.6980 -2.0804 -2.3908 0
M  V30 87 Ba 6.3549 -1.0845 -3.2608 0
M  V30 88 Ba -3.3211 -4.4034 4.2072 0
M  V30 89 Ga -4.5069 -3.7643 3.6060 0
M  V30 90 Ba -5.6403 -3.0665 2.9701 0
M  V30 91 Ba 0.7246 6.2594 -0.3341 0
M  V30 92 Ga -0.3086 6.0413 0.7007 0
M  V30 93 Ba -1.3659 5.9116 1.7262 0
M  V30 94 Ba -1.1934 5.2971 4.1858 0
M  V30 95 Ga -0.1877 4.6487 5.0486 0
M  V30 96 Ba 0.8156 3.9304 5.8570 0
M  V30 97 Ba -1.3838 -5.0387 2.7705 0
M  V30 98 Ga -1.4609 -4.7832 1.3187 0
M  V30 99 Ba -1.5542 -4.4627 -0.1191 0
M  V30 END ATOM
M  V30 BEGIN BOND
M  V30 1 1 1 2
M  V30 2 1 1 3
M  V30 3 1 1 4
M  V30 4 1 1 5
M  V30 5 1 6 7
M  V30 6 1 6 8
M  V30 7 1 6 9
M  V30 8 1 6 10
M  V30 9 1 11 12
M  V30 10 1 11 13
M  V30 11 1 11 14
M  V30 12 1 11 15
M  V30 13 1 16 17
M  V30 14 1 16 18
M  V30 15 1 16 19
M  V30 16 1 16 20
M  V30 17 1 21 22
M  V30 18 1 21 23
M  V30 19 1 21 24
M  V30 20 1 21 25
M  V30 21 1 26 27
M  V30 22 1 26 28
M  V30 23 1 26 29
M  V30 24 1 26 30
M  V30 25 1 31 32
M  V30 26 1 31 33
M  V30 27 1 31 34
M  V30 28 1 31 35
M  V30 29 1 36 37
M  V30 30 1 36 38
M  V30 31 1 36 39
M  V30 32 1 36 40
M  V30 33 1 41 42
M  V30 34 1 41 43
M  V30 35 1 41 44
M  V30 36 1 41 45
M  V30 37 1 46 47
M  V30 38 1 47 48
M  V30 39 1 49 50
M  V30 40 1 50 51
M  V30 41 1 52 53
M  V30 42 1 53 54
M  V30 43 1 55 56
M  V30 44 1 56 57
M  V30 45 1 58 59
M  V30 46 1 59 60
M  V30 47 1 61 62
M  V30 48 1 62 63
M  V30 49 1 64 65
M  V30 50 1 65 66
M  V30 51 1 67 68
M  V30 52 1 68 69
M  V30 53 1 70 71
M  V30 54 1 71 72
M  V30 55 1 73 74
M  V30 56 1 74 75
M  V30 57 1 76 77
M  V30 58 1 77 78
M  V30 59 1 79 80
M  V30 60 1 80 81
M  V30 61 1 82 83
M  V30 62 1 83 84
M  V30 63 1 85 86
M  V30 64 1 86 87
M  V30 65 1 88 89
M  V30 66 1 89 90
M  V30 67 1 91 92
M  V30 68 1 92 93
M  V30 69 1 94 95
M  V30 70 1 95 96
M  V30 71 1 97 98
M  V30 72 1 98 99
M  V30 73 1 2 46
M  V30 74 1 3 70
M  V30 75 1 4 91
M  V30 76 1 5 64
M  V30 77 1 7 73
M  V30 78 1 8 85
M  V30 79 1 9 61
M  V30 80 1 10 82
M  V30 81 1 12 55
M  V30 82 1 13 97
M  V30 83 1 14 88
M  V30 84 1 15 52
M  V30 85 1 17 90
M  V30 86 1 18 49
M  V30 87 1 19 79
M  V30 88 1 20 58
M  V30 89 1 22 75
M  V30 90 1 23 99
M  V30 91 1 24 81
M  V30 92 1 25 76
M  V30 93 1 27 51
M  V30 94 1 28 94
M  V30 95 1 29 93
M  V30 96 1 30 60
M  V30 97 1 32 48
M  V30 98 1 33 96
M  V30 99 1 34 54
M  V30 100 1 35 57
M  V30 101 1 37 78
M  V30 102 1 38 67
M  V30 103 1 39 63
M  V30 104 1 40 66
M  V30 105 1 42 87
M  V30 106 1 43 72
M  V30 107 1 44 69
M  V30 108 1 45 84
M  V30 END BOND
M  V30 END CTAB
M  END

$$$$
