
     RDKit          3D

  0  0  0  0  0  0  0  0  0  0999 V3000
M  V30 BEGIN CTAB
M  V30 COUNTS 99 108 0 0 0
M  V30 BEGIN ATOM
M  V30 1 Pd -0.4079 2.4927 -5.7186 0
M  V30 2 Pb 0.4513 2.3814 -5.2109 0
M  V30 3 Pb -0.0467 1.9649 -6.5068 0
M  V30 4 Pb -1.2348 2.6680 -6.2427 0
M  V30 5 Pb -0.8717 2.8547 -4.9128 0
M  V30 6 Pd -1.7633 -2.2837 -8.4747 0
M  V30 7 Pb -1.1094 -2.8959 -8.0353 0
M  V30 8 Pb -2.4393 -1.6670 -8.8648 0
M  V30 9 Pb -1.0699 -1.5413 -8.5202 0
M  V30 10 Pb -2.4801 -2.9566 -8.2882 0
M  V30 11 Pd 0.2458 -2.3813 2.1742 0
M  V30 12 Pb 1.0568 -1.9950 1.7487 0
M  V30 13 Pb -0.6062 -2.7533 2.5376 0
M  V30 14 Pb 0.8221 -3.1534 2.4390 0
M  V30 15 Pb -0.2415 -1.5166 2.0487 0
M  V30 16 Pd 3.1897 -1.6616 5.9465 0
M  V30 17 Pb 2.9943 -0.9250 6.6109 0
M  V30 18 Pb 3.9984 -1.1329 5.6697 0
M  V30 19 Pb 2.3508 -2.1184 6.2289 0
M  V30 20 Pb 3.3164 -2.4027 5.2809 0
M  V30 21 Pd 1.1520 2.0333 -0.5599 0
M  V30 22 Pb 1.3654 2.9655 -0.2670 0
M  V30 23 Pb 1.0026 1.0707 -0.7628 0
M  V30 24 Pb 0.5302 1.9026 0.2082 0
M  V30 25 Pb 1.6925 2.1327 -1.3953 0
M  V30 26 Pd -2.5048 -3.8927 -3.9092 0
M  V30 27 Pb -1.7345 -4.1806 -4.4769 0
M  V30 28 Pb -3.2657 -3.5607 -3.3447 0
M  V30 29 Pb -3.1149 -4.1357 -4.6659 0
M  V30 30 Pb -1.8591 -3.6222 -3.2042 0
M  V30 31 Pd 4.1149 3.2374 3.4469 0
M  V30 32 Pb 3.6321 3.8512 2.8183 0
M  V30 33 Pb 3.8099 3.8122 4.2067 0
M  V30 34 Pb 4.3180 2.6293 2.6898 0
M  V30 35 Pb 4.5946 2.5748 4.0347 0
M  V30 36 Pd -3.7267 -0.2933 0.4891 0
M  V30 37 Pb -3.4915 0.3964 1.1795 0
M  V30 38 Pb -3.7409 -1.0274 1.1737 0
M  V30 39 Pb -3.6352 0.4511 -0.1738 0
M  V30 40 Pb -4.0493 -0.9469 -0.2066 0
M  V30 41 Pd -0.1609 2.7677 6.5577 0
M  V30 42 Pb -0.7700 2.0044 6.7542 0
M  V30 43 Pb 0.5429 2.3322 7.1314 0
M  V30 44 Pb 0.4836 3.5154 6.3838 0
M  V30 45 Pb -0.8181 3.0773 5.8733 0
M  V30 46 Ag -3.3624 0.9764 1.6440 0
M  V30 47 Fe -2.3456 2.0983 3.4769 0
M  V30 48 Ag -1.3099 3.1869 5.3192 0
M  V30 49 Ag 1.6579 -2.2858 6.4327 0
M  V30 50 Fe -0.1419 -0.8109 6.7977 0
M  V30 51 Ag -1.0863 1.3456 6.8825 0
M  V30 52 Ag -1.8238 2.6911 -6.6918 0
M  V30 53 Fe -2.7819 1.0700 -8.1036 0
M  V30 54 Ag -2.8793 -1.0938 -9.0223 0
M  V30 55 Ag 0.8928 0.3371 -0.8360 0
M  V30 56 Fe -0.2209 -1.5336 -1.7692 0
M  V30 57 Ag -1.3459 -3.3891 -2.7191 0
M  V30 58 Ag -1.3001 3.0226 -4.3225 0
M  V30 59 Fe -2.4172 2.0897 -2.4454 0
M  V30 60 Ag -3.4979 1.0541 -0.6009 0
M  V30 61 Ag 1.6589 -1.6807 1.4459 0
M  V30 62 Fe 3.1455 0.1489 1.6234 0
M  V30 63 Ag 4.3611 2.0999 2.1735 0
M  V30 64 Ba 1.3630 -3.6190 2.6717 0
M  V30 65 Ga 2.3665 -3.3681 3.7303 0
M  V30 66 Ba 3.3065 -2.9931 4.8106 0
M  V30 67 Ba -3.0152 -3.4300 -8.0566 0
M  V30 68 Ga -3.3143 -3.9051 -6.6898 0
M  V30 69 Ba -3.5108 -4.3082 -5.2818 0
M  V30 70 Ba 0.1904 1.5395 -7.0978 0
M  V30 71 Ga -0.2125 0.2763 -7.7917 0
M  V30 72 Ba -0.5518 -0.9758 -8.5375 0
M  V30 73 Ba 3.5059 4.2551 4.7312 0
M  V30 74 Ga 2.2634 4.1619 5.5258 0
M  V30 75 Ba 1.0146 4.0434 6.3070 0
M  V30 76 Ba -0.6711 -3.3666 -7.6542 0
M  V30 77 Ga -0.8569 -3.9008 -6.2951 0
M  V30 78 Ba -1.1640 -4.3565 -4.9293 0
M  V30 79 Ba -3.8384 -3.3044 -2.9268 0
M  V30 80 Ga -4.0427 -2.3550 -1.8069 0
M  V30 81 Ba -4.3669 -1.4331 -0.6927 0
M  V30 82 Ba 1.5599 3.6366 0.0065 0
M  V30 83 Ga 2.4063 4.0001 1.1615 0
M  V30 84 Ba 3.2633 4.2890 2.3296 0
M  V30 85 Ba -0.5698 -0.8412 2.0411 0
M  V30 86 Ga -0.2915 0.4542 1.3949 0
M  V30 87 Ba 0.0186 1.7301 0.7249 0
M  V30 88 Ba 1.1125 2.3366 -4.8508 0
M  V30 89 Ga 1.5827 2.2558 -3.4515 0
M  V30 90 Ba 2.0527 2.1735 -2.0522 0
M  V30 91 Ba 2.8524 -0.3821 7.1247 0
M  V30 92 Ga 1.9570 0.7927 7.2994 0
M  V30 93 Ba 1.0849 1.9766 7.5237 0
M  V30 94 Ba 4.5821 -0.6714 5.5368 0
M  V30 95 Ga 4.7623 0.6835 4.9574 0
M  V30 96 Ba 4.9919 2.0363 4.3906 0
M  V30 97 Ba -1.3039 -2.9359 2.7393 0
M  V30 98 Ga -2.5489 -2.3070 2.2528 0
M  V30 99 Ba -3.7037 -1.5860 1.6785 0
M  V30 END ATOM
M  V30 BEGIN BOND
M  V30 1 1 1 2
M  V30 2 1 1 3
M  V30 3 1 1 4
M  V30 4 1 1 5
M  V30 5 1 6 7
M  V30 6 1 6 8
M  V30 7 1 6 9
M  V30 8 1 6 10
M  V30 9 1 11 12
M  V30 10 1 11 13
M  V30 11 1 11 14
M  V30 12 1 11 15
M  V30 13 1 16 17
M  V30 14 1 16 18
M  V30 15 1 16 19
M  V30 16 1 16 20
M  V30 17 1 21 22
M  V30 18 1 21 23
M  V30 19 1 21 24
M  V30 20 1 21 25
M  V30 21 1 26 27
M  V30 22 1 26 28
M  V30 23 1 26 29
M  V30 24 1 26 30
M  V30 25 1 31 32
M  V30 26 1 31 33
M  V30 27 1 31 34
M  V30 28 1 31 35
M  V30 29 1 36 37
M  V30 30 1 36 38
M  V30 31 1 36 39
M  V30 32 1 36 40
M  V30 33 1 41 42
M  V30 34 1 41 43
M  V30 35 1 41 44
M  V30 36 1 41 45
M  V30 37 1 46 47
M  V30 38 1 47 48
M  V30 39 1 49 50
M  V30 40 1 50 51
M  V30 41 1 52 53
M  V30 42 1 53 54
M  V30 43 1 55 56
M  V30 44 1 56 57
M  V30 45 1 58 59
M  V30 46 1 59 60
M  V30 47 1 61 62
M  V30 48 1 62 63
M  V30 49 1 64 65
M  V30 50 1 65 66
M  V30 51 1 67 68
M  V30 52 1 68 69
M  V30 53 1 70 71
M  V30 54 1 71 72
M  V30 55 1 73 74
M  V30 56 1 74 75
M  V30 57 1 76 77
M  V30 58 1 77 78
M  V30 59 1 79 80
M  V30 60 1 80 81
M  V30 61 1 82 83
M  V30 62 1 83 84
M  V30 63 1 85 86
M  V30 64 1 86 87
M  V30 65 1 88 89
M  V30 66 1 89 90
M  V30 67 1 91 92
M  V30 68 1 92 93
M  V30 69 1 94 95
M  V30 70 1 95 96
M  V30 71 1 97 98
M  V30 72 1 98 99
M  V30 73 1 2 88
M  V30 74 1 3 70
M  V30 75 1 4 52
M  V30 76 1 5 58
M  V30 77 1 7 76
M  V30 78 1 8 54
M  V30 79 1 9 72
M  V30 80 1 10 67
M  V30 81 1 12 61
M  V30 82 1 13 97
M  V30 83 1 14 64
M  V30 84 1 15 85
M  V30 85 1 17 91
M  V30 86 1 18 94
M  V30 87 1 19 49
M  V30 88 1 20 66
M  V30 89 1 22 82
M  V30 90 1 23 55
M  V30 91 1 24 87
M  V30 92 1 25 90
M  V30 93 1 27 78
M  V30 94 1 28 79
M  V30 95 1 29 69
M  V30 96 1 30 57
M  V30 97 1 32 84
M  V30 98 1 33 73
M  V30 99 1 34 63
M  V30 100 1 35 96
M  V30 101 1 37 46
M  V30 102 1 38 99
M  V30 103 1 39 60
M  V30 104 1 40 81
M  V30 105 1 42 51
M  V30 106 1 43 93
M  V30 107 1 44 75
M  V30 108 1 45 48
M  V30 END BOND
M  V30 END CTAB
M  END

$$$$
