
     RDKit          3D

  0  0  0  0  0  0  0  0  0  0999 V3000
M  V30 BEGIN CTAB
M  V30 COUNTS 99 108 0 0 0
M  V30 BEGIN ATOM
M  V30 1 Pd 2.7996 -3.3711 2.1592 0
M  V30 2 Pb 3.7577 -3.2173 1.9002 0
M  V30 3 Pb 1.8642 -3.5630 2.4652 0
M  V30 4 Pb 2.9545 -3.0835 3.1026 0
M  V30 5 Pb 2.6068 -3.6128 1.2059 0
M  V30 6 Pd -8.1566 -1.4359 -0.9215 0
M  V30 7 Pb -7.9420 -0.6218 -1.4589 0
M  V30 8 Pb -8.2789 -0.9111 -0.0824 0
M  V30 9 Pb -7.9544 -1.9770 -1.7344 0
M  V30 10 Pb -8.2446 -2.2785 -0.3719 0
M  V30 11 Pd 5.7158 3.3823 -3.2348 0
M  V30 12 Pb 6.2749 2.5549 -3.0442 0
M  V30 13 Pb 4.9697 2.8201 -3.5885 0
M  V30 14 Pb 5.1141 4.1759 -3.2617 0
M  V30 15 Pb 6.4409 3.9553 -2.8686 0
M  V30 16 Pd -0.5001 5.1565 0.4294 0
M  V30 17 Pb 0.2257 5.4980 -0.1669 0
M  V30 18 Pb -1.2426 4.8374 1.0075 0
M  V30 19 Pb -1.0738 5.0700 -0.3864 0
M  V30 20 Pb 0.0890 5.2401 1.2586 0
M  V30 21 Pd -1.9950 1.6599 -4.0220 0
M  V30 22 Pb -2.9940 1.6523 -3.9460 0
M  V30 23 Pb -0.9975 1.6526 -4.1052 0
M  V30 24 Pb -2.0232 2.5471 -3.5531 0
M  V30 25 Pb -1.9759 0.8122 -4.5596 0
M  V30 26 Pd 1.7491 2.7671 5.4402 0
M  V30 27 Pb 0.7580 2.7584 5.5105 0
M  V30 28 Pb 2.7438 2.7106 5.3720 0
M  V30 29 Pb 1.8313 1.8838 5.8938 0
M  V30 30 Pb 1.6874 3.5975 4.8545 0
M  V30 31 Pd 7.4287 0.2771 1.2328 0
M  V30 32 Pb 7.0009 -0.6322 1.2369 0
M  V30 33 Pb 7.2438 0.4287 2.2005 0
M  V30 34 Pb 7.9246 1.1381 1.2433 0
M  V30 35 Pb 7.5128 0.2596 0.2205 0
M  V30 36 Pd -2.0090 -4.0516 -3.8789 0
M  V30 37 Pb -1.8485 -3.3001 -4.5201 0
M  V30 38 Pb -2.2089 -4.7698 -3.2154 0
M  V30 39 Pb -2.9770 -4.0315 -4.1203 0
M  V30 40 Pb -1.0528 -4.0703 -3.5851 0
M  V30 41 Pd -5.0580 -4.4548 2.7630 0
M  V30 42 Pb -5.4121 -3.7267 3.3453 0
M  V30 43 Pb -4.1500 -4.3990 3.1780 0
M  V30 44 Pb -4.6956 -5.1233 2.1176 0
M  V30 45 Pb -5.9547 -4.4716 2.2953 0
M  V30 46 Ag -7.6944 -0.0644 -1.8940 0
M  V30 47 Fe -5.7498 0.8572 -2.9010 0
M  V30 48 Ag -3.7400 1.6884 -3.8578 0
M  V30 49 Ag -1.6964 4.5771 1.5313 0
M  V30 50 Fe -1.2853 3.6060 3.6380 0
M  V30 51 Ag 0.0244 2.7984 5.4217 0
M  V30 52 Ag 6.9777 4.2689 -2.4692 0
M  V30 53 Fe 7.9921 3.4383 -0.5177 0
M  V30 54 Ag 8.2512 1.7948 1.1445 0
M  V30 55 Ag -8.2565 -0.6635 0.6182 0
M  V30 56 Fe -7.1304 -1.5677 2.4859 0
M  V30 57 Ag -5.7572 -3.1241 3.6110 0
M  V30 58 Ag 4.6276 4.7349 -3.1716 0
M  V30 59 Fe 2.6781 5.3280 -1.9563 0
M  V30 60 Ag 0.7365 5.7442 -0.6572 0
M  V30 61 Ag -7.7232 -2.3636 -2.3303 0
M  V30 62 Fe -5.7884 -3.2348 -3.3895 0
M  V30 63 Ag -3.7139 -4.0032 -4.2442 0
M  V30 64 Ag 2.9569 -2.8277 3.8059 0
M  V30 65 Fe 2.5051 -0.9100 5.1264 0
M  V30 66 Ag 1.9932 1.1873 6.1079 0
M  V30 67 Ag 2.4927 -3.7568 0.4763 0
M  V30 68 Fe 1.0765 -3.9359 -1.4241 0
M  V30 69 Ag -0.3540 -4.1124 -3.3141 0
M  V30 70 Ag -2.3932 -5.2685 -2.6894 0
M  V30 71 Fe -3.3783 -5.5451 -0.5496 0
M  V30 72 Ag -4.3962 -5.5630 1.5926 0
M  V30 73 Ag 1.2099 -3.7032 2.8108 0
M  V30 74 Fe -1.1324 -4.0214 3.0613 0
M  V30 75 Ag -3.4523 -4.3634 3.4511 0
M  V30 76 Ag 3.4735 2.5400 5.3616 0
M  V30 77 Fe 5.3159 1.6136 4.1863 0
M  V30 78 Ag 7.0637 0.6767 2.8824 0
M  V30 79 Ag 4.3964 2.4162 -3.8517 0
M  V30 80 Fe 2.0559 2.0377 -3.9968 0
M  V30 81 Ag -0.2604 1.5601 -4.2172 0
M  V30 82 Ba 4.4798 -3.1699 1.6883 0
M  V30 83 Ga 5.5680 -2.1887 1.4786 0
M  V30 84 Ba 6.7574 -1.3462 1.2208 0
M  V30 85 Ba -1.8991 0.2171 -5.0163 0
M  V30 86 Ga -1.8456 -1.2595 -4.9686 0
M  V30 87 Ba -1.7803 -2.7360 -5.0112 0
M  V30 88 Ba -1.4873 5.0392 -1.0126 0
M  V30 89 Ga -1.7699 4.0860 -2.1067 0
M  V30 90 Ba -2.1342 3.2315 -3.2564 0
M  V30 91 Ba -8.2893 -2.9147 0.0417 0
M  V30 92 Ga -7.4322 -3.6728 0.9946 0
M  V30 93 Ba -6.6353 -4.4860 1.9541 0
M  V30 94 Ba 6.6836 1.9272 -2.8791 0
M  V30 95 Ga 7.1043 1.1310 -1.6838 0
M  V30 96 Ba 7.5677 0.2791 -0.5438 0
M  V30 97 Ba 0.5307 5.3561 1.8785 0
M  V30 98 Ga 1.0532 4.7145 3.1270 0
M  V30 99 Ba 1.6555 4.2203 4.4064 0
M  V30 END ATOM
M  V30 BEGIN BOND
M  V30 1 1 1 2
M  V30 2 1 1 3
M  V30 3 1 1 4
M  V30 4 1 1 5
M  V30 5 1 6 7
M  V30 6 1 6 8
M  V30 7 1 6 9
M  V30 8 1 6 10
M  V30 9 1 11 12
M  V30 10 1 11 13
M  V30 11 1 11 14
M  V30 12 1 11 15
M  V30 13 1 16 17
M  V30 14 1 16 18
M  V30 15 1 16 19
M  V30 16 1 16 20
M  V30 17 1 21 22
M  V30 18 1 21 23
M  V30 19 1 21 24
M  V30 20 1 21 25
M  V30 21 1 26 27
M  V30 22 1 26 28
M  V30 23 1 26 29
M  V30 24 1 26 30
M  V30 25 1 31 32
M  V30 26 1 31 33
M  V30 27 1 31 34
M  V30 28 1 31 35
M  V30 29 1 36 37
M  V30 30 1 36 38
M  V30 31 1 36 39
M  V30 32 1 36 40
M  V30 33 1 41 42
M  V30 34 1 41 43
M  V30 35 1 41 44
M  V30 36 1 41 45
M  V30 37 1 46 47
M  V30 38 1 47 48
M  V30 39 1 49 50
M  V30 40 1 50 51
M  V30 41 1 52 53
M  V30 42 1 53 54
M  V30 43 1 55 56
M  V30 44 1 56 57
M  V30 45 1 58 59
M  V30 46 1 59 60
M  V30 47 1 61 62
M  V30 48 1 62 63
M  V30 49 1 64 65
M  V30 50 1 65 66
M  V30 51 1 67 68
M  V30 52 1 68 69
M  V30 53 1 70 71
M  V30 54 1 71 72
M  V30 55 1 73 74
M  V30 56 1 74 75
M  V30 57 1 76 77
M  V30 58 1 77 78
M  V30 59 1 79 80
M  V30 60 1 80 81
M  V30 61 1 82 83
M  V30 62 1 83 84
M  V30 63 1 85 86
M  V30 64 1 86 87
M  V30 65 1 88 89
M  V30 66 1 89 90
M  V30 67 1 91 92
M  V30 68 1 92 93
M  V30 69 1 94 95
M  V30 70 1 95 96
M  V30 71 1 97 98
M  V30 72 1 98 99
M  V30 73 1 2 82
M  V30 74 1 3 73
M  V30 75 1 4 64
M  V30 76 1 5 67
M  V30 77 1 7 46
M  V30 78 1 8 55
M  V30 79 1 9 61
M  V30 80 1 10 91
M  V30 81 1 12 94
M  V30 82 1 13 79
M  V30 83 1 14 58
M  V30 84 1 15 52
M  V30 85 1 17 60
M  V30 86 1 18 49
M  V30 87 1 19 88
M  V30 88 1 20 97
M  V30 89 1 22 48
M  V30 90 1 23 81
M  V30 91 1 24 90
M  V30 92 1 25 85
M  V30 93 1 27 51
M  V30 94 1 28 76
M  V30 95 1 29 66
M  V30 96 1 30 99
M  V30 97 1 32 84
M  V30 98 1 33 78
M  V30 99 1 34 54
M  V30 100 1 35 96
M  V30 101 1 37 87
M  V30 102 1 38 70
M  V30 103 1 39 63
M  V30 104 1 40 69
M  V30 105 1 42 57
M  V30 106 1 43 75
M  V30 107 1 44 72
M  V30 108 1 45 93
M  V30 END BOND
M  V30 END CTAB
M  END

$$$$
