
     RDKit          3D

  0  0  0  0  0  0  0  0  0  0999 V3000
M  V30 BEGIN CTAB
M  V30 COUNTS 99 108 0 0 0
M  V30 BEGIN ATOM
M  V30 1 Pd 5.7183 -7.1933 -4.0434 0
M  V30 2 Pb 6.3725 -6.5312 -3.6988 0
M  V30 3 Pb 6.3802 -7.4528 -4.7411 0
M  V30 4 Pb 5.0498 -7.7846 -4.5035 0
M  V30 5 Pb 5.0387 -6.8642 -3.3599 0
M  V30 6 Pd -3.4603 5.0777 9.8071 0
M  V30 7 Pb -3.9573 5.9298 9.6563 0
M  V30 8 Pb -4.2580 4.4957 9.6421 0
M  V30 9 Pb -2.6036 5.5984 9.7498 0
M  V30 10 Pb -2.9054 4.2588 9.8921 0
M  V30 11 Pd 1.3746 -0.2422 -6.3469 0
M  V30 12 Pb 1.1092 -0.8243 -7.1125 0
M  V30 13 Pb 0.4229 -0.0210 -6.1487 0
M  V30 14 Pb 2.3214 -0.4611 -6.5900 0
M  V30 15 Pb 1.6201 0.1957 -5.4784 0
M  V30 16 Pd -3.1089 2.3145 5.9321 0
M  V30 17 Pb -2.5328 2.2420 6.7417 0
M  V30 18 Pb -3.7112 2.2369 5.1308 0
M  V30 19 Pb -3.9112 2.2479 6.5351 0
M  V30 20 Pb -2.2843 2.5241 5.3968 0
M  V30 21 Pd 2.5522 -2.5982 -1.8526 0
M  V30 22 Pb 2.8341 -3.5750 -1.7801 0
M  V30 23 Pb 1.6573 -2.8630 -1.4782 0
M  V30 24 Pb 2.2983 -1.6407 -2.0182 0
M  V30 25 Pb 3.4882 -2.3502 -2.0698 0
M  V30 26 Pd -4.1885 3.4544 0.4624 0
M  V30 27 Pb -4.6010 2.8844 1.1711 0
M  V30 28 Pb -4.7243 2.6662 0.1586 0
M  V30 29 Pb -3.3659 2.8860 0.4832 0
M  V30 30 Pb -3.6285 4.2593 0.2935 0
M  V30 31 Pd -3.0124 -1.6248 -1.0198 0
M  V30 32 Pb -2.4959 -0.8709 -0.6135 0
M  V30 33 Pb -3.2523 -1.0451 -1.7916 0
M  V30 34 Pb -3.8541 -1.0902 -0.9398 0
M  V30 35 Pb -2.3368 -2.2737 -0.6757 0
M  V30 36 Pd -0.6718 6.9496 5.4363 0
M  V30 37 Pb -0.5546 6.8094 6.4305 0
M  V30 38 Pb -0.3473 6.0245 5.2078 0
M  V30 39 Pb -0.7977 7.1091 4.4602 0
M  V30 40 Pb -1.1548 7.7935 5.6603 0
M  V30 41 Pd 4.5971 -6.2014 -8.4834 0
M  V30 42 Pb 5.4964 -6.5808 -8.2779 0
M  V30 43 Pb 4.1954 -7.0554 -8.1501 0
M  V30 44 Pb 4.9682 -5.2800 -8.5881 0
M  V30 45 Pb 3.7063 -5.8025 -8.6983 0
M  V30 46 Ag -0.2798 0.1420 -5.9565 0
M  V30 47 Fe -1.9327 -0.1458 -4.2845 0
M  V30 48 Ag -3.3052 -0.6557 -2.4232 0
M  V30 49 Ag -3.1988 4.8671 0.3010 0
M  V30 50 Fe -1.9869 6.1568 1.8753 0
M  V30 51 Ag -0.9104 7.1723 3.7249 0
M  V30 52 Ag -4.1488 6.6113 9.4261 0
M  V30 53 Fe -3.1673 7.9061 7.7123 0
M  V30 54 Ag -1.6423 8.2764 5.9477 0
M  V30 55 Ag 6.7308 -5.9192 -3.4920 0
M  V30 56 Fe 5.8877 -3.8381 -2.7856 0
M  V30 57 Ag 4.2188 -2.2944 -2.1729 0
M  V30 58 Ag 0.9791 -1.3629 -7.6147 0
M  V30 59 Fe 1.9041 -3.4192 -8.3548 0
M  V30 60 Ag 3.0852 -5.4150 -8.8589 0
M  V30 61 Ag 2.9882 -0.6778 -6.8623 0
M  V30 62 Fe 4.2049 -2.5243 -7.7326 0
M  V30 63 Ag 5.1470 -4.5542 -8.5315 0
M  V30 64 Ba -4.7757 4.0002 9.4119 0
M  V30 65 Ga -4.6975 3.1053 8.2324 0
M  V30 66 Ba -4.4867 2.2702 7.0254 0
M  V30 67 Ba -1.6300 2.7319 5.0792 0
M  V30 68 Ga -0.8925 4.0199 5.0222 0
M  V30 69 Ba -0.1783 5.3217 4.9815 0
M  V30 70 Ba -2.4593 3.6670 9.8532 0
M  V30 71 Ga -2.2395 2.8487 8.6580 0
M  V30 72 Ba -2.1495 2.1460 7.3751 0
M  V30 73 Ba -5.1254 2.0749 -0.0704 0
M  V30 74 Ga -4.8061 0.6928 -0.4746 0
M  V30 75 Ba -4.4851 -0.6890 -0.8786 0
M  V30 76 Ba 1.0587 -3.1387 -1.1074 0
M  V30 77 Ga -0.3730 -2.9097 -0.8187 0
M  V30 78 Ba -1.8040 -2.7605 -0.4774 0
M  V30 79 Ba 4.5439 -6.6320 -2.8202 0
M  V30 80 Ga 3.8075 -5.4254 -2.3268 0
M  V30 81 Ba 3.0060 -4.3210 -1.7110 0
M  V30 82 Ba -1.9394 5.9362 9.6252 0
M  V30 83 Ga -1.2159 6.3526 8.3952 0
M  V30 84 Ba -0.4640 6.7775 7.1853 0
M  V30 85 Ba -4.2130 2.0806 4.5875 0
M  V30 86 Ga -4.5175 2.3138 3.1597 0
M  V30 87 Ba -4.8947 2.4984 1.7419 0
M  V30 88 Ba 1.7300 0.4630 -4.7820 0
M  V30 89 Ga 1.9583 -0.2049 -3.4787 0
M  V30 90 Ba 2.1858 -0.9160 -2.1983 0
M  V30 91 Ba 4.5844 -8.1908 -4.9371 0
M  V30 92 Ga 4.2093 -7.9901 -6.3558 0
M  V30 93 Ba 3.9337 -7.6495 -7.7704 0
M  V30 94 Ba 6.8348 -7.5927 -5.3152 0
M  V30 95 Ga 6.5811 -7.2783 -6.7268 0
M  V30 96 Ba 6.1452 -6.8898 -8.0741 0
M  V30 97 Ba -2.7493 2.4592 0.4983 0
M  V30 98 Ga -2.4286 1.0771 0.0950 0
M  V30 99 Ba -2.1091 -0.3052 -0.3087 0
M  V30 END ATOM
M  V30 BEGIN BOND
M  V30 1 1 1 2
M  V30 2 1 1 3
M  V30 3 1 1 4
M  V30 4 1 1 5
M  V30 5 1 6 7
M  V30 6 1 6 8
M  V30 7 1 6 9
M  V30 8 1 6 10
M  V30 9 1 11 12
M  V30 10 1 11 13
M  V30 11 1 11 14
M  V30 12 1 11 15
M  V30 13 1 16 17
M  V30 14 1 16 18
M  V30 15 1 16 19
M  V30 16 1 16 20
M  V30 17 1 21 22
M  V30 18 1 21 23
M  V30 19 1 21 24
M  V30 20 1 21 25
M  V30 21 1 26 27
M  V30 22 1 26 28
M  V30 23 1 26 29
M  V30 24 1 26 30
M  V30 25 1 31 32
M  V30 26 1 31 33
M  V30 27 1 31 34
M  V30 28 1 31 35
M  V30 29 1 36 37
M  V30 30 1 36 38
M  V30 31 1 36 39
M  V30 32 1 36 40
M  V30 33 1 41 42
M  V30 34 1 41 43
M  V30 35 1 41 44
M  V30 36 1 41 45
M  V30 37 1 46 47
M  V30 38 1 47 48
M  V30 39 1 49 50
M  V30 40 1 50 51
M  V30 41 1 52 53
M  V30 42 1 53 54
M  V30 43 1 55 56
M  V30 44 1 56 57
M  V30 45 1 58 59
M  V30 46 1 59 60
M  V30 47 1 61 62
M  V30 48 1 62 63
M  V30 49 1 64 65
M  V30 50 1 65 66
M  V30 51 1 67 68
M  V30 52 1 68 69
M  V30 53 1 70 71
M  V30 54 1 71 72
M  V30 55 1 73 74
M  V30 56 1 74 75
M  V30 57 1 76 77
M  V30 58 1 77 78
M  V30 59 1 79 80
M  V30 60 1 80 81
M  V30 61 1 82 83
M  V30 62 1 83 84
M  V30 63 1 85 86
M  V30 64 1 86 87
M  V30 65 1 88 89
M  V30 66 1 89 90
M  V30 67 1 91 92
M  V30 68 1 92 93
M  V30 69 1 94 95
M  V30 70 1 95 96
M  V30 71 1 97 98
M  V30 72 1 98 99
M  V30 73 1 2 55
M  V30 74 1 3 94
M  V30 75 1 4 91
M  V30 76 1 5 79
M  V30 77 1 7 52
M  V30 78 1 8 64
M  V30 79 1 9 82
M  V30 80 1 10 70
M  V30 81 1 12 58
M  V30 82 1 13 46
M  V30 83 1 14 61
M  V30 84 1 15 88
M  V30 85 1 17 72
M  V30 86 1 18 85
M  V30 87 1 19 66
M  V30 88 1 20 67
M  V30 89 1 22 81
M  V30 90 1 23 76
M  V30 91 1 24 90
M  V30 92 1 25 57
M  V30 93 1 27 87
M  V30 94 1 28 73
M  V30 95 1 29 97
M  V30 96 1 30 49
M  V30 97 1 32 99
M  V30 98 1 33 48
M  V30 99 1 34 75
M  V30 100 1 35 78
M  V30 101 1 37 84
M  V30 102 1 38 69
M  V30 103 1 39 51
M  V30 104 1 40 54
M  V30 105 1 42 96
M  V30 106 1 43 93
M  V30 107 1 44 63
M  V30 108 1 45 60
M  V30 END BOND
M  V30 END CTAB
M  END

$$$$
