
     RDKit          3D

  0  0  0  0  0  0  0  0  0  0999 V3000
M  V30 BEGIN CTAB
M  V30 COUNTS 99 108 0 0 0
M  V30 BEGIN ATOM
M  V30 1 Pd -2.6927 3.1660 0.3916 0
M  V30 2 Pb -2.7067 3.7487 -0.4217 0
M  V30 3 Pb -1.7039 3.3102 0.4555 0
M  V30 4 Pb -3.6901 3.0725 0.3683 0
M  V30 5 Pb -2.6562 2.4891 1.1275 0
M  V30 6 Pd 6.2350 1.5165 5.3604 0
M  V30 7 Pb 6.0126 1.1102 4.4766 0
M  V30 8 Pb 6.4171 2.4009 4.8996 0
M  V30 9 Pb 5.9295 0.6840 5.8242 0
M  V30 10 Pb 6.4356 1.9490 6.2372 0
M  V30 11 Pd -0.0082 -2.1444 -6.4503 0
M  V30 12 Pb -0.7753 -1.9943 -7.0730 0
M  V30 13 Pb 0.7719 -2.2851 -5.8436 0
M  V30 14 Pb -0.3589 -3.0520 -6.2063 0
M  V30 15 Pb 0.3276 -1.2289 -6.6840 0
M  V30 16 Pd -2.0470 -4.9260 -1.9717 0
M  V30 17 Pb -1.8279 -5.0523 -2.9435 0
M  V30 18 Pb -2.9221 -4.4647 -2.2137 0
M  V30 19 Pb -1.2137 -5.4073 -1.6973 0
M  V30 20 Pb -2.2673 -4.8194 -1.0094 0
M  V30 21 Pd 2.6828 -3.7231 0.6162 0
M  V30 22 Pb 3.2153 -2.9196 0.8766 0
M  V30 23 Pb 2.8866 -3.5199 -0.3394 0
M  V30 24 Pb 2.1892 -4.5396 0.3136 0
M  V30 25 Pb 2.4732 -3.9238 1.5756 0
M  V30 26 Pd -6.1564 -0.5885 -1.1063 0
M  V30 27 Pb -5.8767 -1.4487 -1.5717 0
M  V30 28 Pb -6.3790 -0.1779 -1.9879 0
M  V30 29 Pb -6.3400 0.2885 -0.6671 0
M  V30 30 Pb -5.9281 -0.9883 -0.2266 0
M  V30 31 Pd -2.6985 2.1133 -6.9329 0
M  V30 32 Pb -2.6111 2.8797 -6.2948 0
M  V30 33 Pb -3.6661 2.0609 -6.7025 0
M  V30 34 Pb -1.7117 2.0797 -7.0879 0
M  V30 35 Pb -2.7961 1.3022 -7.5073 0
M  V30 36 Pd 1.4168 -1.0236 5.3839 0
M  V30 37 Pb 1.5477 -1.9536 5.0323 0
M  V30 38 Pb 1.2406 -0.0979 5.7231 0
M  V30 39 Pb 2.3064 -1.0944 5.8463 0
M  V30 40 Pb 0.5327 -0.9371 4.9262 0
M  V30 41 Pd 3.2663 5.8045 4.5817 0
M  V30 42 Pb 4.2108 5.7172 4.2467 0
M  V30 43 Pb 2.9176 5.4523 3.7111 0
M  V30 44 Pb 2.3954 5.5903 5.0107 0
M  V30 45 Pb 3.6230 6.0971 5.4666 0
M  V30 46 Ag 5.8364 0.8289 3.8065 0
M  V30 47 Fe 4.7213 -0.7692 2.4522 0
M  V30 48 Ag 3.6422 -2.3209 1.0172 0
M  V30 49 Ag -2.6811 4.1189 -1.0744 0
M  V30 50 Fe -2.6289 3.8703 -3.4370 0
M  V30 51 Ag -2.5876 3.4158 -5.7691 0
M  V30 52 Ag 6.4784 2.4139 6.8147 0
M  V30 53 Fe 5.4054 4.4993 7.0273 0
M  V30 54 Ag 3.9728 6.1335 6.1205 0
M  V30 55 Ag -2.5110 -4.6573 -0.3299 0
M  V30 56 Fe -4.0760 -3.0979 0.4848 0
M  V30 57 Ag -5.6652 -1.3656 0.3522 0
M  V30 58 Ag -2.6278 1.9302 1.6281 0
M  V30 59 Fe -1.3982 0.5534 3.1230 0
M  V30 60 Ag -0.1328 -0.7990 4.6102 0
M  V30 61 Ag 1.0262 0.5976 5.9129 0
M  V30 62 Fe 1.3004 2.9482 5.7214 0
M  V30 63 Ag 1.8443 5.2302 5.3597 0
M  V30 64 Ag -0.9691 3.4580 0.5092 0
M  V30 65 Fe 0.8511 4.3041 1.7823 0
M  V30 66 Ag 2.6579 5.1546 3.0715 0
M  V30 67 Ag -6.5142 0.1473 -2.6473 0
M  V30 68 Fe -5.5604 1.0869 -4.6038 0
M  V30 69 Ag -4.3613 1.9638 -6.4511 0
M  V30 70 Ag 1.3576 -2.3922 -5.3904 0
M  V30 71 Fe 2.2100 -2.8775 -3.2299 0
M  V30 72 Ag 3.0292 -3.3651 -1.0571 0
M  V30 73 Ba 2.3147 -4.0889 2.2922 0
M  V30 74 Ga 1.9812 -3.3479 3.5271 0
M  V30 75 Ba 1.6439 -2.6602 4.7915 0
M  V30 76 Ba -0.6153 -5.7856 -1.4473 0
M  V30 77 Ga 0.6154 -5.4557 -0.7017 0
M  V30 78 Ba 1.8539 -5.1549 0.0434 0
M  V30 79 Ba -3.6054 -4.1769 -2.4126 0
M  V30 80 Ga -4.5890 -3.0886 -2.1214 0
M  V30 81 Ba -5.6801 -2.0781 -1.9630 0
M  V30 82 Ba 0.5513 -0.5333 -6.8647 0
M  V30 83 Ga -0.1723 0.7432 -7.0327 0
M  V30 84 Ba -0.9750 1.9743 -7.1787 0
M  V30 85 Ba 6.5270 3.0734 4.5539 0
M  V30 86 Ga 5.7314 4.3088 4.2987 0
M  V30 87 Ba 4.9214 5.5366 4.0527 0
M  V30 88 Ba -1.3342 -1.8374 -7.5469 0
M  V30 89 Ga -2.1201 -0.6088 -7.7568 0
M  V30 90 Ba -2.8528 0.6623 -7.8918 0
M  V30 91 Ba -0.6178 -3.7372 -6.0311 0
M  V30 92 Ga -1.1428 -4.4269 -4.8319 0
M  V30 93 Ba -1.6758 -5.1749 -3.6718 0
M  V30 94 Ba 5.6451 0.0834 6.1743 0
M  V30 95 Ga 4.3081 -0.5502 6.1751 0
M  V30 96 Ba 2.9746 -1.1909 6.1843 0
M  V30 97 Ba -4.4400 3.0172 0.3853 0
M  V30 98 Ga -5.4424 1.9993 0.0173 0
M  V30 99 Ba -6.4246 0.9653 -0.3600 0
M  V30 END ATOM
M  V30 BEGIN BOND
M  V30 1 1 1 2
M  V30 2 1 1 3
M  V30 3 1 1 4
M  V30 4 1 1 5
M  V30 5 1 6 7
M  V30 6 1 6 8
M  V30 7 1 6 9
M  V30 8 1 6 10
M  V30 9 1 11 12
M  V30 10 1 11 13
M  V30 11 1 11 14
M  V30 12 1 11 15
M  V30 13 1 16 17
M  V30 14 1 16 18
M  V30 15 1 16 19
M  V30 16 1 16 20
M  V30 17 1 21 22
M  V30 18 1 21 23
M  V30 19 1 21 24
M  V30 20 1 21 25
M  V30 21 1 26 27
M  V30 22 1 26 28
M  V30 23 1 26 29
M  V30 24 1 26 30
M  V30 25 1 31 32
M  V30 26 1 31 33
M  V30 27 1 31 34
M  V30 28 1 31 35
M  V30 29 1 36 37
M  V30 30 1 36 38
M  V30 31 1 36 39
M  V30 32 1 36 40
M  V30 33 1 41 42
M  V30 34 1 41 43
M  V30 35 1 41 44
M  V30 36 1 41 45
M  V30 37 1 46 47
M  V30 38 1 47 48
M  V30 39 1 49 50
M  V30 40 1 50 51
M  V30 41 1 52 53
M  V30 42 1 53 54
M  V30 43 1 55 56
M  V30 44 1 56 57
M  V30 45 1 58 59
M  V30 46 1 59 60
M  V30 47 1 61 62
M  V30 48 1 62 63
M  V30 49 1 64 65
M  V30 50 1 65 66
M  V30 51 1 67 68
M  V30 52 1 68 69
M  V30 53 1 70 71
M  V30 54 1 71 72
M  V30 55 1 73 74
M  V30 56 1 74 75
M  V30 57 1 76 77
M  V30 58 1 77 78
M  V30 59 1 79 80
M  V30 60 1 80 81
M  V30 61 1 82 83
M  V30 62 1 83 84
M  V30 63 1 85 86
M  V30 64 1 86 87
M  V30 65 1 88 89
M  V30 66 1 89 90
M  V30 67 1 91 92
M  V30 68 1 92 93
M  V30 69 1 94 95
M  V30 70 1 95 96
M  V30 71 1 97 98
M  V30 72 1 98 99
M  V30 73 1 2 49
M  V30 74 1 3 64
M  V30 75 1 4 97
M  V30 76 1 5 58
M  V30 77 1 7 46
M  V30 78 1 8 85
M  V30 79 1 9 94
M  V30 80 1 10 52
M  V30 81 1 12 88
M  V30 82 1 13 70
M  V30 83 1 14 91
M  V30 84 1 15 82
M  V30 85 1 17 93
M  V30 86 1 18 79
M  V30 87 1 19 76
M  V30 88 1 20 55
M  V30 89 1 22 48
M  V30 90 1 23 72
M  V30 91 1 24 78
M  V30 92 1 25 73
M  V30 93 1 27 81
M  V30 94 1 28 67
M  V30 95 1 29 99
M  V30 96 1 30 57
M  V30 97 1 32 51
M  V30 98 1 33 69
M  V30 99 1 34 84
M  V30 100 1 35 90
M  V30 101 1 37 75
M  V30 102 1 38 61
M  V30 103 1 39 96
M  V30 104 1 40 60
M  V30 105 1 42 87
M  V30 106 1 43 66
M  V30 107 1 44 63
M  V30 108 1 45 54
M  V30 END BOND
M  V30 END CTAB
M  END

$$$$
