
     RDKit          3D

  0  0  0  0  0  0  0  0  0  0999 V3000
M  V30 BEGIN CTAB
M  V30 COUNTS 99 108 0 0 0
M  V30 BEGIN ATOM
M  V30 1 Pd -0.3911 3.2721 -3.1815 0
M  V30 2 Pb -0.3178 3.0043 -4.1392 0
M  V30 3 Pb -0.4663 3.4357 -2.1956 0
M  V30 4 Pb -1.3346 3.5763 -3.3219 0
M  V30 5 Pb 0.5076 2.8616 -3.0538 0
M  V30 6 Pd 2.7941 4.7346 6.4552 0
M  V30 7 Pb 2.5624 3.7838 6.6594 0
M  V30 8 Pb 1.8437 4.9619 6.2465 0
M  V30 9 Pb 3.7557 4.4871 6.5051 0
M  V30 10 Pb 3.0606 5.6294 6.1054 0
M  V30 11 Pd 0.0292 -5.3168 -1.2602 0
M  V30 12 Pb -0.6684 -5.4920 -1.9575 0
M  V30 13 Pb 0.7674 -5.1927 -0.5876 0
M  V30 14 Pb -0.5462 -5.7943 -0.5912 0
M  V30 15 Pb 0.5972 -4.8827 -1.9622 0
M  V30 16 Pd -4.5893 -4.3506 1.4605 0
M  V30 17 Pb -4.0273 -5.1701 1.3418 0
M  V30 18 Pb -5.1031 -3.4945 1.5339 0
M  V30 19 Pb -3.9987 -4.0986 2.2214 0
M  V30 20 Pb -5.1656 -4.5644 0.6734 0
M  V30 21 Pd 2.5958 -2.3223 3.2157 0
M  V30 22 Pb 2.5707 -1.6325 3.9447 0
M  V30 23 Pb 2.6100 -3.0643 2.5367 0
M  V30 24 Pb 1.6632 -2.5554 3.4815 0
M  V30 25 Pb 3.5441 -2.1025 2.9704 0
M  V30 26 Pd -6.9864 0.0294 -3.5344 0
M  V30 27 Pb -7.1011 0.1573 -2.5501 0
M  V30 28 Pb -6.7573 -0.1930 -4.4796 0
M  V30 29 Pb -6.6442 0.9640 -3.6423 0
M  V30 30 Pb -7.2135 -0.9318 -3.3863 0
M  V30 31 Pd -1.0978 -3.1934 -6.0200 0
M  V30 32 Pb -0.7530 -2.3410 -6.4077 0
M  V30 33 Pb -1.9852 -2.9665 -6.4195 0
M  V30 34 Pb -0.2243 -3.3641 -5.5616 0
M  V30 35 Pb -1.4807 -3.9951 -5.5622 0
M  V30 36 Pd 5.7512 1.7612 1.0358 0
M  V30 37 Pb 5.8809 0.8147 1.3357 0
M  V30 38 Pb 5.5564 2.7022 0.7419 0
M  V30 39 Pb 6.1450 2.0702 1.8976 0
M  V30 40 Pb 5.3391 1.4704 0.1794 0
M  V30 41 Pd 1.8105 5.5617 1.8586 0
M  V30 42 Pb 1.1014 5.6460 2.5623 0
M  V30 43 Pb 1.1829 4.9764 1.3383 0
M  V30 44 Pb 2.5734 5.4325 1.2186 0
M  V30 45 Pb 2.3804 6.1750 2.4066 0
M  V30 46 Ag 2.4445 3.0468 6.7364 0
M  V30 47 Fe 2.4644 0.9413 5.6312 0
M  V30 48 Ag 2.4868 -1.1678 4.5329 0
M  V30 49 Ag -0.2340 2.6939 -4.8133 0
M  V30 50 Fe -0.3479 0.5840 -5.8895 0
M  V30 51 Ag -0.5602 -1.6562 -6.6375 0
M  V30 52 Ag -3.5154 -3.9193 2.7601 0
M  V30 53 Fe -1.2807 -3.3115 3.2685 0
M  V30 54 Ag 0.9688 -2.7079 3.7124 0
M  V30 55 Ag -5.4853 -2.8489 1.4990 0
M  V30 56 Fe -6.3694 -1.2526 -0.0216 0
M  V30 57 Ag -7.1167 0.1316 -1.8013 0
M  V30 58 Ag -5.6148 -4.6132 0.0768 0
M  V30 59 Fe -6.5508 -3.2746 -1.6445 0
M  V30 60 Ag -7.2937 -1.6552 -3.2116 0
M  V30 61 Ag 4.4558 4.2689 6.3850 0
M  V30 62 Fe 5.6383 3.2774 4.5902 0
M  V30 63 Ag 6.3820 2.2965 2.5678 0
M  V30 64 Ag -2.0617 3.7293 -3.4331 0
M  V30 65 Fe -4.2370 2.7843 -3.5849 0
M  V30 66 Ag -6.3154 1.6373 -3.6964 0
M  V30 67 Ag 1.1522 2.4912 -2.9849 0
M  V30 68 Fe 3.0876 1.8799 -1.7620 0
M  V30 69 Ag 4.9940 1.3337 -0.4652 0
M  V30 70 Ag -6.5048 -0.4505 -5.1345 0
M  V30 71 Fe -4.6384 -1.5895 -6.0567 0
M  V30 72 Ag -2.6461 -2.7214 -6.6737 0
M  V30 73 Ba 4.2636 -1.9862 2.7779 0
M  V30 74 Ga 5.0954 -0.9207 2.1791 0
M  V30 75 Ba 5.9712 0.1116 1.5846 0
M  V30 76 Ba 1.0159 -4.5833 -2.5103 0
M  V30 77 Ga 0.7266 -4.0272 -3.8481 0
M  V30 78 Ba 0.4147 -3.4748 -5.1823 0
M  V30 79 Ba 3.2628 6.2463 5.7361 0
M  V30 80 Ga 3.0508 6.5166 4.3038 0
M  V30 81 Ba 2.7594 6.6335 2.8644 0
M  V30 82 Ba 1.1688 5.1498 5.9801 0
M  V30 83 Ga 0.8130 5.4312 4.5748 0
M  V30 84 Ba 0.6127 5.6823 3.1333 0
M  V30 85 Ba -1.1702 -5.6521 -2.4940 0
M  V30 86 Ga -1.4781 -5.1185 -3.8354 0
M  V30 87 Ba -1.7688 -4.5677 -5.1737 0
M  V30 88 Ba -0.9939 -6.1864 -0.1292 0
M  V30 89 Ga -2.2774 -5.9659 0.5700 0
M  V30 90 Ba -3.5600 -5.7540 1.2738 0
M  V30 91 Ba 5.3749 3.3824 0.4686 0
M  V30 92 Ga 4.2736 4.3585 0.6411 0
M  V30 93 Ba 3.1885 5.3566 0.7882 0
M  V30 94 Ba -0.5464 3.4816 -1.4491 0
M  V30 95 Ga 0.1092 4.0587 -0.2561 0
M  V30 96 Ba 0.6356 4.5586 1.0319 0
M  V30 97 Ba 1.3658 -5.1505 -0.1276 0
M  V30 98 Ga 1.9500 -4.3448 0.9705 0
M  V30 99 Ba 2.6691 -3.6521 2.0657 0
M  V30 END ATOM
M  V30 BEGIN BOND
M  V30 1 1 1 2
M  V30 2 1 1 3
M  V30 3 1 1 4
M  V30 4 1 1 5
M  V30 5 1 6 7
M  V30 6 1 6 8
M  V30 7 1 6 9
M  V30 8 1 6 10
M  V30 9 1 11 12
M  V30 10 1 11 13
M  V30 11 1 11 14
M  V30 12 1 11 15
M  V30 13 1 16 17
M  V30 14 1 16 18
M  V30 15 1 16 19
M  V30 16 1 16 20
M  V30 17 1 21 22
M  V30 18 1 21 23
M  V30 19 1 21 24
M  V30 20 1 21 25
M  V30 21 1 26 27
M  V30 22 1 26 28
M  V30 23 1 26 29
M  V30 24 1 26 30
M  V30 25 1 31 32
M  V30 26 1 31 33
M  V30 27 1 31 34
M  V30 28 1 31 35
M  V30 29 1 36 37
M  V30 30 1 36 38
M  V30 31 1 36 39
M  V30 32 1 36 40
M  V30 33 1 41 42
M  V30 34 1 41 43
M  V30 35 1 41 44
M  V30 36 1 41 45
M  V30 37 1 46 47
M  V30 38 1 47 48
M  V30 39 1 49 50
M  V30 40 1 50 51
M  V30 41 1 52 53
M  V30 42 1 53 54
M  V30 43 1 55 56
M  V30 44 1 56 57
M  V30 45 1 58 59
M  V30 46 1 59 60
M  V30 47 1 61 62
M  V30 48 1 62 63
M  V30 49 1 64 65
M  V30 50 1 65 66
M  V30 51 1 67 68
M  V30 52 1 68 69
M  V30 53 1 70 71
M  V30 54 1 71 72
M  V30 55 1 73 74
M  V30 56 1 74 75
M  V30 57 1 76 77
M  V30 58 1 77 78
M  V30 59 1 79 80
M  V30 60 1 80 81
M  V30 61 1 82 83
M  V30 62 1 83 84
M  V30 63 1 85 86
M  V30 64 1 86 87
M  V30 65 1 88 89
M  V30 66 1 89 90
M  V30 67 1 91 92
M  V30 68 1 92 93
M  V30 69 1 94 95
M  V30 70 1 95 96
M  V30 71 1 97 98
M  V30 72 1 98 99
M  V30 73 1 2 49
M  V30 74 1 3 94
M  V30 75 1 4 64
M  V30 76 1 5 67
M  V30 77 1 7 46
M  V30 78 1 8 82
M  V30 79 1 9 61
M  V30 80 1 10 79
M  V30 81 1 12 85
M  V30 82 1 13 97
M  V30 83 1 14 88
M  V30 84 1 15 76
M  V30 85 1 17 90
M  V30 86 1 18 55
M  V30 87 1 19 52
M  V30 88 1 20 58
M  V30 89 1 22 48
M  V30 90 1 23 99
M  V30 91 1 24 54
M  V30 92 1 25 73
M  V30 93 1 27 57
M  V30 94 1 28 70
M  V30 95 1 29 66
M  V30 96 1 30 60
M  V30 97 1 32 51
M  V30 98 1 33 72
M  V30 99 1 34 78
M  V30 100 1 35 87
M  V30 101 1 37 75
M  V30 102 1 38 91
M  V30 103 1 39 63
M  V30 104 1 40 69
M  V30 105 1 42 84
M  V30 106 1 43 96
M  V30 107 1 44 93
M  V30 108 1 45 81
M  V30 END BOND
M  V30 END CTAB
M  END

$$$$
