
     RDKit          3D

  0  0  0  0  0  0  0  0  0  0999 V3000
M  V30 BEGIN CTAB
M  V30 COUNTS 99 108 0 0 0
M  V30 BEGIN ATOM
M  V30 1 Pd 1.2690 -2.8577 -0.5476 0
M  V30 2 Pb 0.6847 -3.5389 -0.1060 0
M  V30 3 Pb 1.8646 -2.1780 -0.9789 0
M  V30 4 Pb 2.0740 -3.4372 -0.4107 0
M  V30 5 Pb 0.4627 -2.2661 -0.6264 0
M  V30 6 Pd 0.0406 2.4410 -7.9029 0
M  V30 7 Pb -0.2563 3.0901 -7.2025 0
M  V30 8 Pb 0.9497 2.8652 -7.9207 0
M  V30 9 Pb -0.8426 1.9678 -7.8552 0
M  V30 10 Pb 0.3643 1.7947 -8.5938 0
M  V30 11 Pd -3.2220 0.8280 6.1627 0
M  V30 12 Pb -2.8225 0.2360 6.8684 0
M  V30 13 Pb -3.6400 1.3839 5.4428 0
M  V30 14 Pb -2.6775 1.6130 6.4704 0
M  V30 15 Pb -3.7831 0.0565 5.8676 0
M  V30 16 Pd 1.5238 3.2432 4.8918 0
M  V30 17 Pb 0.7993 3.4521 5.5502 0
M  V30 18 Pb 2.2197 2.9595 4.2279 0
M  V30 19 Pb 1.1489 3.9065 4.2457 0
M  V30 20 Pb 1.9114 2.5636 5.5094 0
M  V30 21 Pd -3.1785 4.0565 -0.9646 0
M  V30 22 Pb -2.7141 4.3364 -1.8048 0
M  V30 23 Pb -3.6523 3.8062 -0.1193 0
M  V30 24 Pb -2.5310 4.5777 -0.4115 0
M  V30 25 Pb -3.8090 3.5040 -1.5092 0
M  V30 26 Pd 4.5551 -3.0770 3.5074 0
M  V30 27 Pb 4.7431 -2.2061 3.0516 0
M  V30 28 Pb 4.2325 -3.8797 4.0028 0
M  V30 29 Pb 4.5860 -3.5813 2.6432 0
M  V30 30 Pb 4.4533 -2.5573 4.3522 0
M  V30 31 Pd -2.0659 -4.1998 5.8930 0
M  V30 32 Pb -2.0717 -4.6682 5.0117 0
M  V30 33 Pb -1.1793 -4.6277 6.0648 0
M  V30 34 Pb -2.9374 -3.7629 5.6821 0
M  V30 35 Pb -2.0002 -3.6281 6.7132 0
M  V30 36 Pd -2.5754 -0.3843 -4.0627 0
M  V30 37 Pb -3.3186 0.2321 -3.7962 0
M  V30 38 Pb -1.8550 -1.0227 -4.3306 0
M  V30 39 Pb -2.7580 -0.1749 -5.0265 0
M  V30 40 Pb -2.3590 -0.5413 -3.0978 0
M  V30 41 Pd 3.8411 -0.1140 -7.0259 0
M  V30 42 Pb 4.0708 0.8325 -7.2434 0
M  V30 43 Pb 4.0791 0.0091 -6.0643 0
M  V30 44 Pb 3.4251 -0.9800 -6.7678 0
M  V30 45 Pb 3.4773 -0.2150 -7.9489 0
M  V30 46 Ag -0.4605 3.5807 -6.6733 0
M  V30 47 Fe -1.4234 4.0566 -4.5551 0
M  V30 48 Ag -2.3821 4.5564 -2.4404 0
M  V30 49 Ag 0.2311 -4.0239 0.2431 0
M  V30 50 Fe -0.9280 -4.5817 2.2384 0
M  V30 51 Ag -1.9982 -4.9542 4.3244 0
M  V30 52 Ag 0.8670 4.3841 3.7424 0
M  V30 53 Fe -0.5737 4.7225 1.8870 0
M  V30 54 Ag -2.0478 4.9297 0.0386 0
M  V30 55 Ag 2.7342 2.6655 3.7634 0
M  V30 56 Fe 3.8477 0.6510 3.1666 0
M  V30 57 Ag 4.7881 -1.5011 2.7957 0
M  V30 58 Ag 2.2437 2.0163 5.8927 0
M  V30 59 Fe 3.3146 -0.0763 5.5896 0
M  V30 60 Ag 4.3164 -2.1258 4.9460 0
M  V30 61 Ag -1.3075 -1.4885 -4.5414 0
M  V30 62 Fe 0.8440 -1.6934 -5.5170 0
M  V30 63 Ag 2.9859 -1.5276 -6.5195 0
M  V30 64 Ag 2.3461 -1.6989 -1.3003 0
M  V30 65 Fe 3.3012 -0.7731 -3.2681 0
M  V30 66 Ag 4.1552 0.0610 -5.3213 0
M  V30 67 Ag 3.8853 -4.3907 4.4229 0
M  V30 68 Fe 1.7404 -4.8136 5.3446 0
M  V30 69 Ag -0.5030 -4.9475 6.1059 0
M  V30 70 Ag -3.9780 1.7666 4.8919 0
M  V30 71 Fe -3.9736 2.7062 2.7094 0
M  V30 72 Ag -3.9961 3.6551 0.5310 0
M  V30 73 Ba -4.2654 3.0804 -1.9266 0
M  V30 74 Ga -4.0741 1.8803 -2.7643 0
M  V30 75 Ba -3.8906 0.6803 -3.6039 0
M  V30 76 Ba -4.1980 -0.5304 5.6584 0
M  V30 77 Ga -3.9206 -1.9736 5.5783 0
M  V30 78 Ba -3.5724 -3.4024 5.5227 0
M  V30 79 Ba 0.6700 1.3163 -9.0833 0
M  V30 80 Ga 1.8848 0.4982 -8.9343 0
M  V30 81 Ba 3.1126 -0.2416 -8.6004 0
M  V30 82 Ba 1.6566 3.1252 -7.9285 0
M  V30 83 Ga 2.9309 2.4200 -7.6841 0
M  V30 84 Ba 4.1004 1.5612 -7.4114 0
M  V30 85 Ba -2.5502 -0.2434 7.3831 0
M  V30 86 Ga -2.2404 -1.6904 7.3627 0
M  V30 87 Ba -1.9478 -3.1390 7.2826 0
M  V30 88 Ba -2.2912 2.2148 6.7081 0
M  V30 89 Ga -1.0206 2.8903 6.3693 0
M  V30 90 Ba 0.2469 3.5776 6.0433 0
M  V30 91 Ba -1.4932 1.5905 -7.8153 0
M  V30 92 Ga -2.1905 0.8002 -6.7772 0
M  V30 93 Ba -2.8937 0.0084 -5.7442 0
M  V30 94 Ba 2.6900 -3.8487 -0.2850 0
M  V30 95 Ga 3.6443 -3.9185 0.8400 0
M  V30 96 Ba 4.5704 -3.9516 1.9899 0
M  V30 97 Ba -0.1625 -1.8464 -0.6146 0
M  V30 98 Ga -1.1542 -1.2518 -1.5347 0
M  V30 99 Ba -2.1971 -0.6182 -2.3683 0
M  V30 END ATOM
M  V30 BEGIN BOND
M  V30 1 1 1 2
M  V30 2 1 1 3
M  V30 3 1 1 4
M  V30 4 1 1 5
M  V30 5 1 6 7
M  V30 6 1 6 8
M  V30 7 1 6 9
M  V30 8 1 6 10
M  V30 9 1 11 12
M  V30 10 1 11 13
M  V30 11 1 11 14
M  V30 12 1 11 15
M  V30 13 1 16 17
M  V30 14 1 16 18
M  V30 15 1 16 19
M  V30 16 1 16 20
M  V30 17 1 21 22
M  V30 18 1 21 23
M  V30 19 1 21 24
M  V30 20 1 21 25
M  V30 21 1 26 27
M  V30 22 1 26 28
M  V30 23 1 26 29
M  V30 24 1 26 30
M  V30 25 1 31 32
M  V30 26 1 31 33
M  V30 27 1 31 34
M  V30 28 1 31 35
M  V30 29 1 36 37
M  V30 30 1 36 38
M  V30 31 1 36 39
M  V30 32 1 36 40
M  V30 33 1 41 42
M  V30 34 1 41 43
M  V30 35 1 41 44
M  V30 36 1 41 45
M  V30 37 1 46 47
M  V30 38 1 47 48
M  V30 39 1 49 50
M  V30 40 1 50 51
M  V30 41 1 52 53
M  V30 42 1 53 54
M  V30 43 1 55 56
M  V30 44 1 56 57
M  V30 45 1 58 59
M  V30 46 1 59 60
M  V30 47 1 61 62
M  V30 48 1 62 63
M  V30 49 1 64 65
M  V30 50 1 65 66
M  V30 51 1 67 68
M  V30 52 1 68 69
M  V30 53 1 70 71
M  V30 54 1 71 72
M  V30 55 1 73 74
M  V30 56 1 74 75
M  V30 57 1 76 77
M  V30 58 1 77 78
M  V30 59 1 79 80
M  V30 60 1 80 81
M  V30 61 1 82 83
M  V30 62 1 83 84
M  V30 63 1 85 86
M  V30 64 1 86 87
M  V30 65 1 88 89
M  V30 66 1 89 90
M  V30 67 1 91 92
M  V30 68 1 92 93
M  V30 69 1 94 95
M  V30 70 1 95 96
M  V30 71 1 97 98
M  V30 72 1 98 99
M  V30 73 1 2 49
M  V30 74 1 3 64
M  V30 75 1 4 94
M  V30 76 1 5 97
M  V30 77 1 7 46
M  V30 78 1 8 82
M  V30 79 1 9 91
M  V30 80 1 10 79
M  V30 81 1 12 85
M  V30 82 1 13 70
M  V30 83 1 14 88
M  V30 84 1 15 76
M  V30 85 1 17 90
M  V30 86 1 18 55
M  V30 87 1 19 52
M  V30 88 1 20 58
M  V30 89 1 22 48
M  V30 90 1 23 72
M  V30 91 1 24 54
M  V30 92 1 25 73
M  V30 93 1 27 57
M  V30 94 1 28 67
M  V30 95 1 29 96
M  V30 96 1 30 60
M  V30 97 1 32 51
M  V30 98 1 33 69
M  V30 99 1 34 78
M  V30 100 1 35 87
M  V30 101 1 37 75
M  V30 102 1 38 61
M  V30 103 1 39 93
M  V30 104 1 40 99
M  V30 105 1 42 84
M  V30 106 1 43 66
M  V30 107 1 44 63
M  V30 108 1 45 81
M  V30 END BOND
M  V30 END CTAB
M  END

$$$$
