
     RDKit          3D

  0  0  0  0  0  0  0  0  0  0999 V3000
M  V30 BEGIN CTAB
M  V30 COUNTS 99 108 0 0 0
M  V30 BEGIN ATOM
M  V30 1 Pd -0.7438 3.7146 -1.4388 0
M  V30 2 Pb -1.3487 3.9156 -0.6649 0
M  V30 3 Pb -0.1683 4.4914 -1.1953 0
M  V30 4 Pb -1.3826 3.0030 -1.7277 0
M  V30 5 Pb -0.0617 3.4349 -2.1164 0
M  V30 6 Pd -2.3620 -0.2102 -5.5143 0
M  V30 7 Pb -1.4087 -0.3452 -5.2465 0
M  V30 8 Pb -2.2174 -0.8966 -6.2226 0
M  V30 9 Pb -2.5483 0.3385 -4.6992 0
M  V30 10 Pb -3.3435 -0.2799 -5.6820 0
M  V30 11 Pd -1.2689 -6.0711 -3.1425 0
M  V30 12 Pb -1.1825 -6.0143 -2.1506 0
M  V30 13 Pb -1.3742 -6.0120 -4.1328 0
M  V30 14 Pb -2.1978 -6.4264 -3.0500 0
M  V30 15 Pb -0.4452 -5.5131 -3.2430 0
M  V30 16 Pd -2.9929 0.3386 1.7733 0
M  V30 17 Pb -3.0554 -0.6522 1.6278 0
M  V30 18 Pb -2.8349 0.1821 2.7538 0
M  V30 19 Pb -3.1876 0.4878 0.8064 0
M  V30 20 Pb -2.9438 1.3352 1.8711 0
M  V30 21 Pd 2.9000 -2.9350 2.4458 0
M  V30 22 Pb 3.0878 -2.6286 1.4913 0
M  V30 23 Pb 2.6725 -3.0726 3.4034 0
M  V30 24 Pb 2.0558 -3.3893 2.1665 0
M  V30 25 Pb 3.7739 -2.5823 2.7488 0
M  V30 26 Pd -4.7563 -2.7699 -2.2991 0
M  V30 27 Pb -4.5474 -1.8021 -2.1730 0
M  V30 28 Pb -4.3561 -2.9674 -1.4007 0
M  V30 29 Pb -4.9167 -3.7513 -2.4431 0
M  V30 30 Pb -5.1589 -2.5177 -3.1821 0
M  V30 31 Pd 4.0642 5.3089 3.2832 0
M  V30 32 Pb 3.4461 5.6941 3.9546 0
M  V30 33 Pb 4.6496 5.0018 2.5292 0
M  V30 34 Pb 4.1498 4.4609 3.8513 0
M  V30 35 Pb 3.8078 6.0386 2.6612 0
M  V30 36 Pd 4.3803 1.7213 -0.8885 0
M  V30 37 Pb 4.7175 2.6524 -0.7728 0
M  V30 38 Pb 5.0987 1.4977 -0.2456 0
M  V30 39 Pb 3.6989 1.9736 -1.5866 0
M  V30 40 Pb 4.0777 0.7464 -0.8955 0
M  V30 41 Pd 0.9184 0.8466 5.6631 0
M  V30 42 Pb -0.0082 0.4681 5.6611 0
M  V30 43 Pb 1.8444 1.2792 5.5602 0
M  V30 44 Pb 0.5242 1.7379 5.8365 0
M  V30 45 Pb 1.2858 -0.0871 5.6552 0
M  V30 46 Ag 2.9013 5.8719 4.4172 0
M  V30 47 Fe 1.3008 4.5108 5.4654 0
M  V30 48 Ag 0.3340 2.4345 5.9849 0
M  V30 49 Ag 0.2495 5.0818 -1.0085 0
M  V30 50 Fe 1.8821 5.9671 0.4602 0
M  V30 51 Ag 3.5046 6.4403 2.1170 0
M  V30 52 Ag -1.1141 -5.8943 -1.4160 0
M  V30 53 Fe 0.1438 -4.8562 0.3074 0
M  V30 54 Ag 1.4524 -3.7891 1.9746 0
M  V30 55 Ag -2.1220 -1.5239 -6.6142 0
M  V30 56 Fe -1.7719 -3.7946 -6.0396 0
M  V30 57 Ag -1.4404 -5.8158 -4.8500 0
M  V30 58 Ag -0.7546 -0.6307 -5.0183 0
M  V30 59 Fe -0.0526 -2.7295 -4.1590 0
M  V30 60 Ag 0.0501 -4.9626 -3.3595 0
M  V30 61 Ag 4.4209 -2.2607 2.8898 0
M  V30 62 Fe 5.4906 -0.4419 1.8643 0
M  V30 63 Ag 5.5755 1.2782 0.2709 0
M  V30 64 Ba -3.1046 -1.3938 1.5038 0
M  V30 65 Ga -3.5816 -2.2439 0.3906 0
M  V30 66 Ba -4.0579 -3.0963 -0.7212 0
M  V30 67 Ba -2.7540 0.0272 3.4887 0
M  V30 68 Ga -1.7214 0.1272 4.5437 0
M  V30 69 Ba -0.7136 0.2126 5.6237 0
M  V30 70 Ba 0.4893 3.2103 -2.5763 0
M  V30 71 Ga 1.8536 2.6809 -2.3445 0
M  V30 72 Ba 3.2225 2.1489 -2.1488 0
M  V30 73 Ba -3.3562 0.6087 0.0882 0
M  V30 74 Ga -3.8634 -0.2330 -1.0077 0
M  V30 75 Ba -4.3708 -1.0787 -2.1003 0
M  V30 76 Ba -4.0673 -0.4632 -5.7399 0
M  V30 77 Ga -4.8222 -1.3450 -4.8269 0
M  V30 78 Ba -5.4368 -2.2385 -3.8240 0
M  V30 79 Ba 5.0369 4.9263 1.8858 0
M  V30 80 Ga 5.0360 4.0998 0.6601 0
M  V30 81 Ba 5.0637 3.2856 -0.5735 0
M  V30 82 Ba 2.5073 -3.0624 4.1292 0
M  V30 83 Ga 2.0028 -1.9390 4.9406 0
M  V30 84 Ba 1.5022 -0.8048 5.7395 0
M  V30 85 Ba -1.7620 4.0182 -0.0439 0
M  V30 86 Ga -2.3552 3.0763 0.9309 0
M  V30 87 Ba -2.9269 2.0879 1.8719 0
M  V30 88 Ba 4.1828 3.8198 4.2855 0
M  V30 89 Ga 3.3027 2.7360 4.8518 0
M  V30 90 Ba 2.5511 1.5925 5.4820 0
M  V30 91 Ba -1.9239 2.5243 -1.9252 0
M  V30 92 Ga -2.2706 1.6049 -3.0251 0
M  V30 93 Ba -2.7471 0.6564 -4.0489 0
M  V30 94 Ba 3.1969 -2.3846 0.7690 0
M  V30 95 Ga 3.5472 -1.1513 -0.0098 0
M  V30 96 Ba 3.8836 0.0006 -0.9099 0
M  V30 97 Ba -2.9316 -6.5653 -2.9833 0
M  V30 98 Ga -4.0096 -5.5781 -2.7589 0
M  V30 99 Ba -4.9935 -4.4968 -2.5337 0
M  V30 END ATOM
M  V30 BEGIN BOND
M  V30 1 1 1 2
M  V30 2 1 1 3
M  V30 3 1 1 4
M  V30 4 1 1 5
M  V30 5 1 6 7
M  V30 6 1 6 8
M  V30 7 1 6 9
M  V30 8 1 6 10
M  V30 9 1 11 12
M  V30 10 1 11 13
M  V30 11 1 11 14
M  V30 12 1 11 15
M  V30 13 1 16 17
M  V30 14 1 16 18
M  V30 15 1 16 19
M  V30 16 1 16 20
M  V30 17 1 21 22
M  V30 18 1 21 23
M  V30 19 1 21 24
M  V30 20 1 21 25
M  V30 21 1 26 27
M  V30 22 1 26 28
M  V30 23 1 26 29
M  V30 24 1 26 30
M  V30 25 1 31 32
M  V30 26 1 31 33
M  V30 27 1 31 34
M  V30 28 1 31 35
M  V30 29 1 36 37
M  V30 30 1 36 38
M  V30 31 1 36 39
M  V30 32 1 36 40
M  V30 33 1 41 42
M  V30 34 1 41 43
M  V30 35 1 41 44
M  V30 36 1 41 45
M  V30 37 1 46 47
M  V30 38 1 47 48
M  V30 39 1 49 50
M  V30 40 1 50 51
M  V30 41 1 52 53
M  V30 42 1 53 54
M  V30 43 1 55 56
M  V30 44 1 56 57
M  V30 45 1 58 59
M  V30 46 1 59 60
M  V30 47 1 61 62
M  V30 48 1 62 63
M  V30 49 1 64 65
M  V30 50 1 65 66
M  V30 51 1 67 68
M  V30 52 1 68 69
M  V30 53 1 70 71
M  V30 54 1 71 72
M  V30 55 1 73 74
M  V30 56 1 74 75
M  V30 57 1 76 77
M  V30 58 1 77 78
M  V30 59 1 79 80
M  V30 60 1 80 81
M  V30 61 1 82 83
M  V30 62 1 83 84
M  V30 63 1 85 86
M  V30 64 1 86 87
M  V30 65 1 88 89
M  V30 66 1 89 90
M  V30 67 1 91 92
M  V30 68 1 92 93
M  V30 69 1 94 95
M  V30 70 1 95 96
M  V30 71 1 97 98
M  V30 72 1 98 99
M  V30 73 1 2 85
M  V30 74 1 3 49
M  V30 75 1 4 91
M  V30 76 1 5 70
M  V30 77 1 7 58
M  V30 78 1 8 55
M  V30 79 1 9 93
M  V30 80 1 10 76
M  V30 81 1 12 52
M  V30 82 1 13 57
M  V30 83 1 14 97
M  V30 84 1 15 60
M  V30 85 1 17 64
M  V30 86 1 18 67
M  V30 87 1 19 73
M  V30 88 1 20 87
M  V30 89 1 22 94
M  V30 90 1 23 82
M  V30 91 1 24 54
M  V30 92 1 25 61
M  V30 93 1 27 75
M  V30 94 1 28 66
M  V30 95 1 29 99
M  V30 96 1 30 78
M  V30 97 1 32 46
M  V30 98 1 33 79
M  V30 99 1 34 88
M  V30 100 1 35 51
M  V30 101 1 37 81
M  V30 102 1 38 63
M  V30 103 1 39 72
M  V30 104 1 40 96
M  V30 105 1 42 69
M  V30 106 1 43 90
M  V30 107 1 44 48
M  V30 108 1 45 84
M  V30 END BOND
M  V30 END CTAB
M  END

$$$$
