
     RDKit          3D

  0  0  0  0  0  0  0  0  0  0999 V3000
M  V30 BEGIN CTAB
M  V30 COUNTS 99 108 0 0 0
M  V30 BEGIN ATOM
M  V30 1 Pd 3.8040 -2.2408 3.8076 0
M  V30 2 Pb 4.4250 -1.7739 4.4350 0
M  V30 3 Pb 3.1349 -2.6359 3.1380 0
M  V30 4 Pb 3.0727 -1.9566 4.4088 0
M  V30 5 Pb 4.5760 -2.4904 3.2219 0
M  V30 6 Pd -3.3921 -3.0550 -3.7942 0
M  V30 7 Pb -3.8500 -2.3060 -4.2738 0
M  V30 8 Pb -4.2211 -3.1537 -3.2613 0
M  V30 9 Pb -2.9391 -3.7436 -3.2199 0
M  V30 10 Pb -2.6087 -2.9756 -4.4077 0
M  V30 11 Pd -1.1876 3.1867 2.4411 0
M  V30 12 Pb -0.3121 3.5151 2.0866 0
M  V30 13 Pb -2.0587 2.9065 2.8529 0
M  V30 14 Pb -0.7173 2.8199 3.2459 0
M  V30 15 Pb -1.6341 3.5906 1.6379 0
M  V30 16 Pd 3.9877 2.6662 3.9531 0
M  V30 17 Pb 3.5079 3.2076 3.2628 0
M  V30 18 Pb 4.4717 2.0724 4.5966 0
M  V30 19 Pb 3.1136 2.4687 4.3991 0
M  V30 20 Pb 4.8518 2.8322 3.4807 0
M  V30 21 Pd 1.0997 0.2411 -5.3086 0
M  V30 22 Pb 1.7631 0.9639 -5.1101 0
M  V30 23 Pb 0.3515 0.9079 -5.2924 0
M  V30 24 Pb 1.8707 -0.3928 -5.3171 0
M  V30 25 Pb 0.4991 -0.5231 -5.5408 0
M  V30 26 Pd -3.7916 2.2489 -2.6669 0
M  V30 27 Pb -3.0474 2.3449 -3.3334 0
M  V30 28 Pb -4.5876 2.2598 -2.0556 0
M  V30 29 Pb -4.2103 1.5868 -3.2950 0
M  V30 30 Pb -3.3893 2.9416 -2.0634 0
M  V30 31 Pd -1.8441 -3.4244 1.6111 0
M  V30 32 Pb -2.8257 -3.4742 1.7999 0
M  V30 33 Pb -0.8219 -3.4050 1.5408 0
M  V30 34 Pb -1.8144 -2.9200 2.4604 0
M  V30 35 Pb -1.8963 -3.9509 0.7519 0
M  V30 36 Pd 7.4384 0.2252 -2.0196 0
M  V30 37 Pb 7.6859 0.8760 -1.3053 0
M  V30 38 Pb 7.6606 -0.5305 -1.4076 0
M  V30 39 Pb 7.0861 -0.4170 -2.6959 0
M  V30 40 Pb 7.0379 0.9594 -2.5662 0
M  V30 41 Pd -5.9993 0.0748 1.9699 0
M  V30 42 Pb -5.5005 0.6490 2.6198 0
M  V30 43 Pb -6.4789 -0.5026 1.3247 0
M  V30 44 Pb -5.7636 -0.7853 2.4215 0
M  V30 45 Pb -6.2129 0.8695 1.4050 0
M  V30 46 Ag 2.4725 -1.7573 4.7840 0
M  V30 47 Fe 0.1744 -1.9447 4.3425 0
M  V30 48 Ag -1.7168 -2.5680 3.0989 0
M  V30 49 Ag 5.1759 -2.6342 2.7943 0
M  V30 50 Fe 6.5220 -1.9575 0.9595 0
M  V30 51 Ag 7.6993 -1.0859 -0.9086 0
M  V30 52 Ag 2.3304 1.4367 -4.9737 0
M  V30 53 Fe 4.4927 1.5984 -4.0037 0
M  V30 54 Ag 6.6151 1.4465 -2.9479 0
M  V30 55 Ag 2.4879 -0.8145 -5.2941 0
M  V30 56 Fe 4.6458 -0.9763 -4.3243 0
M  V30 57 Ag 6.7231 -0.8452 -3.1883 0
M  V30 58 Ag -4.8579 -3.1624 -2.8841 0
M  V30 59 Fe -5.9898 -2.1822 -1.0593 0
M  V30 60 Ag -6.7412 -0.9858 0.8315 0
M  V30 61 Ag 5.4904 2.9160 3.0994 0
M  V30 62 Fe 6.7383 2.2125 1.2084 0
M  V30 63 Ag 7.7860 1.3530 -0.7387 0
M  V30 64 Ba -4.2232 -1.7260 -4.5706 0
M  V30 65 Ga -4.3560 -0.3031 -4.1903 0
M  V30 66 Ba -4.4952 1.1204 -3.8149 0
M  V30 67 Ba 2.6805 -2.9190 2.5779 0
M  V30 68 Ga 1.2676 -3.1354 2.1123 0
M  V30 69 Ba -0.0527 -3.4449 1.4636 0
M  V30 70 Ba -0.1628 1.4569 -5.2943 0
M  V30 71 Ga -1.3560 1.9014 -4.5425 0
M  V30 72 Ba -2.5552 2.4698 -3.8904 0
M  V30 73 Ba -2.6782 2.7190 3.2387 0
M  V30 74 Ga -3.8985 1.8941 3.1232 0
M  V30 75 Ba -5.1450 1.1008 3.1021 0
M  V30 76 Ba -0.3649 2.5609 3.8573 0
M  V30 77 Ga 1.0429 2.4351 4.2859 0
M  V30 78 Ba 2.4508 2.3093 4.7142 0
M  V30 79 Ba -5.1808 2.3749 -1.6043 0
M  V30 80 Ga -5.7595 1.8805 -0.3383 0
M  V30 81 Ba -6.3764 1.4171 0.9215 0
M  V30 82 Ba -1.9105 3.9481 1.0345 0
M  V30 83 Ga -2.5249 3.6602 -0.2800 0
M  V30 84 Ba -3.1433 3.4929 -1.6135 0
M  V30 85 Ba 4.8352 -1.3541 4.8998 0
M  V30 86 Ga 4.8847 0.1147 5.0171 0
M  V30 87 Ba 4.8446 1.5884 5.0324 0
M  V30 88 Ba 0.3411 3.7925 1.8434 0
M  V30 89 Ga 1.7459 3.6886 2.2815 0
M  V30 90 Ba 3.1501 3.5833 2.7212 0
M  V30 91 Ba -2.6244 -4.2462 -2.7526 0
M  V30 92 Ga -2.2692 -4.2773 -1.3117 0
M  V30 93 Ba -1.8924 -4.3721 0.1207 0
M  V30 94 Ba -2.0717 -2.9210 -4.9261 0
M  V30 95 Ga -0.9802 -1.9999 -5.2904 0
M  V30 96 Ba 0.1324 -1.1453 -5.7420 0
M  V30 97 Ba -3.5184 -3.4853 2.0938 0
M  V30 98 Ga -4.5771 -2.4882 2.3594 0
M  V30 99 Ba -5.6411 -1.4974 2.6274 0
M  V30 END ATOM
M  V30 BEGIN BOND
M  V30 1 1 1 2
M  V30 2 1 1 3
M  V30 3 1 1 4
M  V30 4 1 1 5
M  V30 5 1 6 7
M  V30 6 1 6 8
M  V30 7 1 6 9
M  V30 8 1 6 10
M  V30 9 1 11 12
M  V30 10 1 11 13
M  V30 11 1 11 14
M  V30 12 1 11 15
M  V30 13 1 16 17
M  V30 14 1 16 18
M  V30 15 1 16 19
M  V30 16 1 16 20
M  V30 17 1 21 22
M  V30 18 1 21 23
M  V30 19 1 21 24
M  V30 20 1 21 25
M  V30 21 1 26 27
M  V30 22 1 26 28
M  V30 23 1 26 29
M  V30 24 1 26 30
M  V30 25 1 31 32
M  V30 26 1 31 33
M  V30 27 1 31 34
M  V30 28 1 31 35
M  V30 29 1 36 37
M  V30 30 1 36 38
M  V30 31 1 36 39
M  V30 32 1 36 40
M  V30 33 1 41 42
M  V30 34 1 41 43
M  V30 35 1 41 44
M  V30 36 1 41 45
M  V30 37 1 46 47
M  V30 38 1 47 48
M  V30 39 1 49 50
M  V30 40 1 50 51
M  V30 41 1 52 53
M  V30 42 1 53 54
M  V30 43 1 55 56
M  V30 44 1 56 57
M  V30 45 1 58 59
M  V30 46 1 59 60
M  V30 47 1 61 62
M  V30 48 1 62 63
M  V30 49 1 64 65
M  V30 50 1 65 66
M  V30 51 1 67 68
M  V30 52 1 68 69
M  V30 53 1 70 71
M  V30 54 1 71 72
M  V30 55 1 73 74
M  V30 56 1 74 75
M  V30 57 1 76 77
M  V30 58 1 77 78
M  V30 59 1 79 80
M  V30 60 1 80 81
M  V30 61 1 82 83
M  V30 62 1 83 84
M  V30 63 1 85 86
M  V30 64 1 86 87
M  V30 65 1 88 89
M  V30 66 1 89 90
M  V30 67 1 91 92
M  V30 68 1 92 93
M  V30 69 1 94 95
M  V30 70 1 95 96
M  V30 71 1 97 98
M  V30 72 1 98 99
M  V30 73 1 2 85
M  V30 74 1 3 67
M  V30 75 1 4 46
M  V30 76 1 5 49
M  V30 77 1 7 64
M  V30 78 1 8 58
M  V30 79 1 9 91
M  V30 80 1 10 94
M  V30 81 1 12 88
M  V30 82 1 13 73
M  V30 83 1 14 76
M  V30 84 1 15 82
M  V30 85 1 17 90
M  V30 86 1 18 87
M  V30 87 1 19 78
M  V30 88 1 20 61
M  V30 89 1 22 52
M  V30 90 1 23 70
M  V30 91 1 24 55
M  V30 92 1 25 96
M  V30 93 1 27 72
M  V30 94 1 28 79
M  V30 95 1 29 66
M  V30 96 1 30 84
M  V30 97 1 32 97
M  V30 98 1 33 69
M  V30 99 1 34 48
M  V30 100 1 35 93
M  V30 101 1 37 63
M  V30 102 1 38 51
M  V30 103 1 39 57
M  V30 104 1 40 54
M  V30 105 1 42 75
M  V30 106 1 43 60
M  V30 107 1 44 99
M  V30 108 1 45 81
M  V30 END BOND
M  V30 END CTAB
M  END

$$$$
