
     RDKit          3D

  0  0  0  0  0  0  0  0  0  0999 V3000
M  V30 BEGIN CTAB
M  V30 COUNTS 99 108 0 0 0
M  V30 BEGIN ATOM
M  V30 1 Pd 4.2917 4.9635 -1.0391 0
M  V30 2 Pb 3.3651 5.2641 -0.8120 0
M  V30 3 Pb 5.2062 4.6830 -1.3359 0
M  V30 4 Pb 4.4502 5.8475 -1.4770 0
M  V30 5 Pb 4.1465 4.0684 -0.6099 0
M  V30 6 Pd 5.7574 5.4304 -5.6561 0
M  V30 7 Pb 5.0199 5.7208 -6.2640 0
M  V30 8 Pb 5.6257 6.2423 -5.0920 0
M  V30 9 Pb 6.3990 5.0854 -4.9711 0
M  V30 10 Pb 5.8315 4.5864 -6.1840 0
M  V30 11 Pd -3.9109 -1.8722 0.5430 0
M  V30 12 Pb -4.3025 -1.0520 0.9697 0
M  V30 13 Pb -3.4943 -2.6895 0.1490 0
M  V30 14 Pb -4.6220 -2.4307 0.9706 0
M  V30 15 Pb -3.2287 -1.3612 0.0146 0
M  V30 16 Pd -5.0851 -6.3584 4.0741 0
M  V30 17 Pb -4.3227 -6.6703 3.4850 0
M  V30 18 Pb -5.6647 -5.8803 4.7292 0
M  V30 19 Pb -4.8047 -7.0316 4.7537 0
M  V30 20 Pb -5.4084 -5.6953 3.3972 0
M  V30 21 Pd -0.6146 2.7917 -1.2499 0
M  V30 22 Pb -0.4692 2.6386 -0.2743 0
M  V30 23 Pb -0.7865 2.9618 -2.2244 0
M  V30 24 Pb -0.8886 1.8380 -1.3698 0
M  V30 25 Pb -0.3077 3.7304 -1.1047 0
M  V30 26 Pd 1.8558 2.5337 -6.3294 0
M  V30 27 Pb 1.9326 3.4597 -6.7022 0
M  V30 28 Pb 1.8167 1.6055 -5.9628 0
M  V30 29 Pb 2.7608 2.3359 -6.7056 0
M  V30 30 Pb 0.9652 2.7518 -5.9238 0
M  V30 31 Pd -3.3849 0.1402 5.3843 0
M  V30 32 Pb -2.6465 0.6594 4.9598 0
M  V30 33 Pb -2.7176 -0.2293 6.0321 0
M  V30 34 Pb -3.9948 0.4436 4.6495 0
M  V30 35 Pb -4.1120 -0.4323 5.7677 0
M  V30 36 Pd 0.9801 -2.1916 -0.3126 0
M  V30 37 Pb 0.6878 -2.2202 0.6417 0
M  V30 38 Pb 0.3070 -2.8996 -0.5281 0
M  V30 39 Pb 1.6358 -1.4682 -0.0824 0
M  V30 40 Pb 1.2234 -2.1251 -1.2780 0
M  V30 41 Pd 0.2172 -5.4552 4.5120 0
M  V30 42 Pb 0.2372 -6.2708 5.0848 0
M  V30 43 Pb -0.3095 -5.9701 3.8159 0
M  V30 44 Pb 0.5117 -4.8823 5.2732 0
M  V30 45 Pb 0.1294 -4.6012 3.9981 0
M  V30 46 Ag -2.1644 -0.5526 6.4229 0
M  V30 47 Fe -0.6794 -2.4021 6.3306 0
M  V30 48 Ag 0.5488 -4.3654 5.8115 0
M  V30 49 Ag -4.4537 -7.4967 5.2142 0
M  V30 50 Fe -2.1638 -7.6491 5.7408 0
M  V30 51 Ag 0.0383 -6.8552 5.4946 0
M  V30 52 Ag 4.0703 3.3915 -0.2885 0
M  V30 53 Fe 3.0676 1.2413 -0.1187 0
M  V30 54 Ag 2.1184 -0.9265 0.1200 0
M  V30 55 Ag 1.8232 0.9078 -5.6913 0
M  V30 56 Fe 1.6023 -0.5899 -3.8639 0
M  V30 57 Ag 1.3707 -2.0495 -2.0072 0
M  V30 58 Ag -0.3760 2.5590 0.4638 0
M  V30 59 Fe -1.2030 1.7990 2.5536 0
M  V30 60 Ag -2.0890 1.0130 4.6093 0
M  V30 61 Ag -5.9649 -5.3727 5.1877 0
M  V30 62 Fe -5.4727 -3.1184 5.7454 0
M  V30 63 Ag -4.6414 -0.9096 6.0056 0
M  V30 64 Ba -5.1844 -2.8564 1.2262 0
M  V30 65 Ga -5.3942 -4.0296 2.0973 0
M  V30 66 Ba -5.7309 -5.1937 2.9400 0
M  V30 67 Ba 0.4364 -2.2027 1.3464 0
M  V30 68 Ga 0.2683 -3.1158 2.4921 0
M  V30 69 Ba 0.0418 -3.9128 3.7117 0
M  V30 70 Ba 5.8130 3.9446 -6.5682 0
M  V30 71 Ga 4.6732 3.0416 -6.8041 0
M  V30 72 Ba 3.4559 2.2274 -6.9646 0
M  V30 73 Ba 5.8810 4.5065 -1.6162 0
M  V30 74 Ga 6.4071 4.6384 -2.9895 0
M  V30 75 Ba 6.8066 4.8221 -4.3990 0
M  V30 76 Ba 4.5883 6.4887 -1.8384 0
M  V30 77 Ga 5.0437 6.7222 -3.2181 0
M  V30 78 Ba 5.4984 6.8030 -4.6151 0
M  V30 79 Ba -0.9543 3.0854 -2.9490 0
M  V30 80 Ga -0.2975 2.9970 -4.2715 0
M  V30 81 Ba 0.2985 2.9308 -5.6239 0
M  V30 82 Ba 4.4137 5.8750 -6.6758 0
M  V30 83 Ga 3.2019 5.0569 -6.8709 0
M  V30 84 Ba 2.0478 4.1454 -6.9863 0
M  V30 85 Ba -4.6129 -0.4594 1.3183 0
M  V30 86 Ga -4.5222 0.1075 2.6823 0
M  V30 87 Ba -4.4073 0.6489 4.0548 0
M  V30 88 Ba -2.7122 -1.1045 -0.4702 0
M  V30 89 Ga -1.9226 0.0645 -0.9062 0
M  V30 90 Ba -1.0562 1.1156 -1.4773 0
M  V30 91 Ba 2.6706 5.5238 -0.6954 0
M  V30 92 Ga 1.3071 4.9761 -0.8164 0
M  V30 93 Ba -0.0500 4.4136 -0.9404 0
M  V30 94 Ba -3.6995 -6.8626 3.0865 0
M  V30 95 Ga -2.2329 -6.6010 3.2135 0
M  V30 96 Ba -0.7641 -6.3465 3.3295 0
M  V30 97 Ba -3.1193 -3.2640 -0.1500 0
M  V30 98 Ga -1.6785 -3.3934 -0.4312 0
M  V30 99 Ba -0.2237 -3.4111 -0.6672 0
M  V30 END ATOM
M  V30 BEGIN BOND
M  V30 1 1 1 2
M  V30 2 1 1 3
M  V30 3 1 1 4
M  V30 4 1 1 5
M  V30 5 1 6 7
M  V30 6 1 6 8
M  V30 7 1 6 9
M  V30 8 1 6 10
M  V30 9 1 11 12
M  V30 10 1 11 13
M  V30 11 1 11 14
M  V30 12 1 11 15
M  V30 13 1 16 17
M  V30 14 1 16 18
M  V30 15 1 16 19
M  V30 16 1 16 20
M  V30 17 1 21 22
M  V30 18 1 21 23
M  V30 19 1 21 24
M  V30 20 1 21 25
M  V30 21 1 26 27
M  V30 22 1 26 28
M  V30 23 1 26 29
M  V30 24 1 26 30
M  V30 25 1 31 32
M  V30 26 1 31 33
M  V30 27 1 31 34
M  V30 28 1 31 35
M  V30 29 1 36 37
M  V30 30 1 36 38
M  V30 31 1 36 39
M  V30 32 1 36 40
M  V30 33 1 41 42
M  V30 34 1 41 43
M  V30 35 1 41 44
M  V30 36 1 41 45
M  V30 37 1 46 47
M  V30 38 1 47 48
M  V30 39 1 49 50
M  V30 40 1 50 51
M  V30 41 1 52 53
M  V30 42 1 53 54
M  V30 43 1 55 56
M  V30 44 1 56 57
M  V30 45 1 58 59
M  V30 46 1 59 60
M  V30 47 1 61 62
M  V30 48 1 62 63
M  V30 49 1 64 65
M  V30 50 1 65 66
M  V30 51 1 67 68
M  V30 52 1 68 69
M  V30 53 1 70 71
M  V30 54 1 71 72
M  V30 55 1 73 74
M  V30 56 1 74 75
M  V30 57 1 76 77
M  V30 58 1 77 78
M  V30 59 1 79 80
M  V30 60 1 80 81
M  V30 61 1 82 83
M  V30 62 1 83 84
M  V30 63 1 85 86
M  V30 64 1 86 87
M  V30 65 1 88 89
M  V30 66 1 89 90
M  V30 67 1 91 92
M  V30 68 1 92 93
M  V30 69 1 94 95
M  V30 70 1 95 96
M  V30 71 1 97 98
M  V30 72 1 98 99
M  V30 73 1 2 91
M  V30 74 1 3 73
M  V30 75 1 4 76
M  V30 76 1 5 52
M  V30 77 1 7 82
M  V30 78 1 8 78
M  V30 79 1 9 75
M  V30 80 1 10 70
M  V30 81 1 12 85
M  V30 82 1 13 97
M  V30 83 1 14 64
M  V30 84 1 15 88
M  V30 85 1 17 94
M  V30 86 1 18 61
M  V30 87 1 19 49
M  V30 88 1 20 66
M  V30 89 1 22 58
M  V30 90 1 23 79
M  V30 91 1 24 90
M  V30 92 1 25 93
M  V30 93 1 27 84
M  V30 94 1 28 55
M  V30 95 1 29 72
M  V30 96 1 30 81
M  V30 97 1 32 60
M  V30 98 1 33 46
M  V30 99 1 34 87
M  V30 100 1 35 63
M  V30 101 1 37 67
M  V30 102 1 38 99
M  V30 103 1 39 54
M  V30 104 1 40 57
M  V30 105 1 42 51
M  V30 106 1 43 96
M  V30 107 1 44 48
M  V30 108 1 45 69
M  V30 END BOND
M  V30 END CTAB
M  END

$$$$
