
     RDKit          3D

  0  0  0  0  0  0  0  0  0  0999 V3000
M  V30 BEGIN CTAB
M  V30 COUNTS 99 108 0 0 0
M  V30 BEGIN ATOM
M  V30 1 Pd -5.3043 -0.9590 0.9300 0
M  V30 2 Pb -5.0839 -1.1000 1.8976 0
M  V30 3 Pb -5.5089 0.0044 1.1104 0
M  V30 4 Pb -5.1688 -1.9246 0.7000 0
M  V30 5 Pb -5.5156 -0.7739 -0.0265 0
M  V30 6 Pd 2.4822 5.7584 -0.2843 0
M  V30 7 Pb 2.7421 4.8687 0.0926 0
M  V30 8 Pb 2.0288 5.9884 0.5755 0
M  V30 9 Pb 2.6827 5.4987 -1.2250 0
M  V30 10 Pb 2.1108 6.6023 -0.6605 0
M  V30 11 Pd 5.6527 -1.3967 3.2029 0
M  V30 12 Pb 4.9425 -0.7820 3.5592 0
M  V30 13 Pb 6.0497 -0.7115 2.5921 0
M  V30 14 Pb 6.2254 -2.0786 2.7578 0
M  V30 15 Pb 5.2184 -2.1198 3.7305 0
M  V30 16 Pd 3.1021 -4.9699 -2.0198 0
M  V30 17 Pb 4.0040 -5.0522 -1.6011 0
M  V30 18 Pb 2.1799 -4.8632 -2.3988 0
M  V30 19 Pb 3.4879 -4.2794 -2.6354 0
M  V30 20 Pb 2.7376 -5.6206 -1.3554 0
M  V30 21 Pd 3.9445 0.2822 -1.4497 0
M  V30 22 Pb 3.6335 0.9257 -0.7497 0
M  V30 23 Pb 4.8444 0.3682 -1.0204 0
M  V30 24 Pb 4.2539 -0.3817 -2.1341 0
M  V30 25 Pb 3.0408 0.2104 -1.8716 0
M  V30 26 Pd -1.7097 -5.5376 0.2431 0
M  V30 27 Pb -1.4176 -5.2905 -0.6850 0
M  V30 28 Pb -1.9946 -5.7687 1.1741 0
M  V30 29 Pb -2.6222 -5.1531 0.0970 0
M  V30 30 Pb -0.8245 -5.9786 0.3859 0
M  V30 31 Pd -1.2769 -2.8092 4.6184 0
M  V30 32 Pb -2.1536 -2.3306 4.5340 0
M  V30 33 Pb -1.7473 -3.6825 4.4988 0
M  V30 34 Pb -0.4164 -3.2913 4.7543 0
M  V30 35 Pb -0.7408 -1.9604 4.6798 0
M  V30 36 Pd -2.5830 3.2255 -4.4792 0
M  V30 37 Pb -2.0181 2.4137 -4.3430 0
M  V30 38 Pb -3.1751 4.0344 -4.5258 0
M  V30 39 Pb -1.7257 3.7276 -4.6050 0
M  V30 40 Pb -3.3926 2.6632 -4.3309 0
M  V30 41 Pd -4.1472 6.5350 -0.7191 0
M  V30 42 Pb -3.6415 6.6128 0.1424 0
M  V30 43 Pb -4.7303 5.8334 -0.3074 0
M  V30 44 Pb -4.5310 6.4108 -1.6364 0
M  V30 45 Pb -3.5121 7.2050 -1.0940 0
M  V30 46 Ag 2.3872 0.1220 -2.2288 0
M  V30 47 Fe 0.3991 0.9707 -3.2107 0
M  V30 48 Ag -1.5902 1.8186 -4.1910 0
M  V30 49 Ag 4.8162 -2.6457 4.0709 0
M  V30 50 Fe 2.5782 -3.2559 4.5478 0
M  V30 51 Ag 0.2560 -3.5909 4.8706 0
M  V30 52 Ag 1.7089 7.1634 -0.9400 0
M  V30 53 Fe -0.5856 7.6561 -1.2504 0
M  V30 54 Ag -2.9522 7.6460 -1.3117 0
M  V30 55 Ag 1.5241 6.1510 1.1048 0
M  V30 56 Fe -0.8321 6.4501 1.1579 0
M  V30 57 Ag -3.1579 6.6547 0.7167 0
M  V30 58 Ag 4.3242 -0.4259 3.8082 0
M  V30 59 Fe 2.0176 -0.7777 4.2923 0
M  V30 60 Ag -0.2503 -1.3847 4.7012 0
M  V30 61 Ag 6.5217 -2.6170 2.3373 0
M  V30 62 Fe 5.8025 -3.9606 0.5237 0
M  V30 63 Ag 4.6599 -5.0494 -1.2433 0
M  V30 64 Ag 2.6221 5.3622 -1.9575 0
M  V30 65 Fe 0.9052 4.6845 -3.4525 0
M  V30 66 Ag -1.0207 3.9854 -4.6550 0
M  V30 67 Ag -5.6506 -0.5708 -0.7322 0
M  V30 68 Fe -4.8965 0.7808 -2.5281 0
M  V30 69 Ag -3.9587 2.2005 -4.1790 0
M  V30 70 Ag -5.7102 0.7243 1.1871 0
M  V30 71 Fe -5.4183 3.0151 0.6256 0
M  V30 72 Ag -5.1175 5.3032 0.0579 0
M  V30 73 Ba 2.8614 4.2062 0.4251 0
M  V30 74 Ga 3.1687 2.8076 0.0675 0
M  V30 75 Ba 3.4707 1.3837 -0.1776 0
M  V30 76 Ba -4.9386 -1.1461 2.6343 0
M  V30 77 Ga -3.8557 -1.5934 3.5354 0
M  V30 78 Ba -2.8339 -2.0094 4.5191 0
M  V30 79 Ba 3.8284 -3.7556 -3.0549 0
M  V30 80 Ga 4.1300 -2.3197 -2.8689 0
M  V30 81 Ba 4.4237 -0.8843 -2.6681 0
M  V30 82 Ba 1.4733 -4.7910 -2.6487 0
M  V30 83 Ga 0.1429 -4.9474 -2.0197 0
M  V30 84 Ba -1.1805 -5.1076 -1.3769 0
M  V30 85 Ba 2.4640 -6.0820 -0.8329 0
M  V30 86 Ga 1.1517 -6.2158 -0.1759 0
M  V30 87 Ba -0.1688 -6.3317 0.4681 0
M  V30 88 Ba -5.1370 -2.6372 0.4619 0
M  V30 89 Ga -4.1808 -3.7448 0.2624 0
M  V30 90 Ba -3.3337 -4.9284 0.0125 0
M  V30 91 Ba -3.6792 4.5953 -4.5139 0
M  V30 92 Ga -4.2167 5.4731 -3.4499 0
M  V30 93 Ba -4.7274 6.3337 -2.3590 0
M  V30 94 Ba -2.2274 -5.9135 1.8730 0
M  V30 95 Ga -2.1620 -5.1561 3.1369 0
M  V30 96 Ba -2.0627 -4.3491 4.3673 0
M  V30 97 Ba 6.3610 -0.2679 2.0726 0
M  V30 98 Ga 5.9427 0.1257 0.7121 0
M  V30 99 Ba 5.4812 0.4926 -0.6417 0
M  V30 END ATOM
M  V30 BEGIN BOND
M  V30 1 1 1 2
M  V30 2 1 1 3
M  V30 3 1 1 4
M  V30 4 1 1 5
M  V30 5 1 6 7
M  V30 6 1 6 8
M  V30 7 1 6 9
M  V30 8 1 6 10
M  V30 9 1 11 12
M  V30 10 1 11 13
M  V30 11 1 11 14
M  V30 12 1 11 15
M  V30 13 1 16 17
M  V30 14 1 16 18
M  V30 15 1 16 19
M  V30 16 1 16 20
M  V30 17 1 21 22
M  V30 18 1 21 23
M  V30 19 1 21 24
M  V30 20 1 21 25
M  V30 21 1 26 27
M  V30 22 1 26 28
M  V30 23 1 26 29
M  V30 24 1 26 30
M  V30 25 1 31 32
M  V30 26 1 31 33
M  V30 27 1 31 34
M  V30 28 1 31 35
M  V30 29 1 36 37
M  V30 30 1 36 38
M  V30 31 1 36 39
M  V30 32 1 36 40
M  V30 33 1 41 42
M  V30 34 1 41 43
M  V30 35 1 41 44
M  V30 36 1 41 45
M  V30 37 1 46 47
M  V30 38 1 47 48
M  V30 39 1 49 50
M  V30 40 1 50 51
M  V30 41 1 52 53
M  V30 42 1 53 54
M  V30 43 1 55 56
M  V30 44 1 56 57
M  V30 45 1 58 59
M  V30 46 1 59 60
M  V30 47 1 61 62
M  V30 48 1 62 63
M  V30 49 1 64 65
M  V30 50 1 65 66
M  V30 51 1 67 68
M  V30 52 1 68 69
M  V30 53 1 70 71
M  V30 54 1 71 72
M  V30 55 1 73 74
M  V30 56 1 74 75
M  V30 57 1 76 77
M  V30 58 1 77 78
M  V30 59 1 79 80
M  V30 60 1 80 81
M  V30 61 1 82 83
M  V30 62 1 83 84
M  V30 63 1 85 86
M  V30 64 1 86 87
M  V30 65 1 88 89
M  V30 66 1 89 90
M  V30 67 1 91 92
M  V30 68 1 92 93
M  V30 69 1 94 95
M  V30 70 1 95 96
M  V30 71 1 97 98
M  V30 72 1 98 99
M  V30 73 1 2 76
M  V30 74 1 3 70
M  V30 75 1 4 88
M  V30 76 1 5 67
M  V30 77 1 7 73
M  V30 78 1 8 55
M  V30 79 1 9 64
M  V30 80 1 10 52
M  V30 81 1 12 58
M  V30 82 1 13 97
M  V30 83 1 14 61
M  V30 84 1 15 49
M  V30 85 1 17 63
M  V30 86 1 18 82
M  V30 87 1 19 79
M  V30 88 1 20 85
M  V30 89 1 22 75
M  V30 90 1 23 99
M  V30 91 1 24 81
M  V30 92 1 25 46
M  V30 93 1 27 84
M  V30 94 1 28 94
M  V30 95 1 29 90
M  V30 96 1 30 87
M  V30 97 1 32 78
M  V30 98 1 33 96
M  V30 99 1 34 51
M  V30 100 1 35 60
M  V30 101 1 37 48
M  V30 102 1 38 91
M  V30 103 1 39 66
M  V30 104 1 40 69
M  V30 105 1 42 57
M  V30 106 1 43 72
M  V30 107 1 44 93
M  V30 108 1 45 54
M  V30 END BOND
M  V30 END CTAB
M  END

$$$$
