
     RDKit          3D

  0  0  0  0  0  0  0  0  0  0999 V3000
M  V30 BEGIN CTAB
M  V30 COUNTS 99 108 0 0 0
M  V30 BEGIN ATOM
M  V30 1 Pd 0.3873 5.7904 4.5461 0
M  V30 2 Pb -0.0206 6.4342 3.9003 0
M  V30 3 Pb 1.0266 6.4834 4.8758 0
M  V30 4 Pb 0.8333 5.1305 5.1515 0
M  V30 5 Pb -0.1758 5.0682 4.1499 0
M  V30 6 Pd 5.0441 4.8743 4.1125 0
M  V30 7 Pb 5.4417 5.3626 3.3390 0
M  V30 8 Pb 4.5498 4.3905 4.8326 0
M  V30 9 Pb 4.7401 5.7359 4.5198 0
M  V30 10 Pb 5.2877 4.0123 3.6656 0
M  V30 11 Pd -4.0126 -1.8444 1.8541 0
M  V30 12 Pb -4.7245 -1.6812 1.1708 0
M  V30 13 Pb -3.2426 -2.0166 2.4693 0
M  V30 14 Pb -4.0984 -2.8270 1.7057 0
M  V30 15 Pb -3.9467 -0.8589 2.0055 0
M  V30 16 Pd -2.9637 -7.6111 -3.0089 0
M  V30 17 Pb -2.6009 -7.8345 -3.9121 0
M  V30 18 Pb -3.6432 -6.9867 -3.4046 0
M  V30 19 Pb -2.2479 -8.1922 -2.6120 0
M  V30 20 Pb -3.2969 -7.3786 -2.0986 0
M  V30 21 Pd -1.1078 4.8844 -0.3882 0
M  V30 22 Pb -1.1029 4.0567 -0.9500 0
M  V30 23 Pb -0.4187 5.2812 -0.9953 0
M  V30 24 Pb -1.7514 4.4483 0.2384 0
M  V30 25 Pb -1.1180 5.7147 0.1713 0
M  V30 26 Pd 3.9234 3.7063 -0.6470 0
M  V30 27 Pb 4.4834 4.4659 -0.3142 0
M  V30 28 Pb 3.3883 2.9379 -1.0046 0
M  V30 29 Pb 4.4179 3.1023 -0.0209 0
M  V30 30 Pb 3.3981 4.3362 -1.2210 0
M  V30 31 Pd -3.6885 -2.0933 -3.4182 0
M  V30 32 Pb -3.1818 -1.2581 -3.1972 0
M  V30 33 Pb -2.9250 -2.3166 -4.0222 0
M  V30 34 Pb -4.4345 -1.8558 -2.7921 0
M  V30 35 Pb -4.1626 -2.9447 -3.6657 0
M  V30 36 Pd 0.8888 -0.8850 0.8866 0
M  V30 37 Pb 1.4450 -1.6680 0.6002 0
M  V30 38 Pb 0.5346 -1.3857 1.6767 0
M  V30 39 Pb 0.3182 -0.1184 1.1785 0
M  V30 40 Pb 1.2102 -0.3724 0.0879 0
M  V30 41 Pd 1.6127 -6.8475 -3.8633 0
M  V30 42 Pb 1.4580 -7.6367 -3.2725 0
M  V30 43 Pb 1.0784 -7.3032 -4.5726 0
M  V30 44 Pb 1.5711 -6.0170 -4.4094 0
M  V30 45 Pb 2.0734 -6.3526 -3.1251 0
M  V30 46 Ag -4.1638 -3.5616 1.5851 0
M  V30 47 Fe -3.8685 -5.4006 0.1171 0
M  V30 48 Ag -3.5352 -7.1747 -1.4208 0
M  V30 49 Ag 1.8600 -2.2525 0.3721 0
M  V30 50 Fe 2.1506 -4.1116 -1.0804 0
M  V30 51 Ag 2.3759 -5.9551 -2.5640 0
M  V30 52 Ag -2.3115 -2.4562 -4.4284 0
M  V30 53 Fe -0.4052 -3.8337 -4.7312 0
M  V30 54 Ag 1.3757 -5.3982 -4.7748 0
M  V30 55 Ag -0.5490 4.5224 3.8005 0
M  V30 56 Fe -0.3813 2.4735 2.6144 0
M  V30 57 Ag -0.1238 0.4283 1.4380 0
M  V30 58 Ag -1.0832 3.4443 -1.3831 0
M  V30 59 Fe -1.9870 1.3963 -2.1802 0
M  V30 60 Ag -2.7291 -0.6665 -3.0967 0
M  V30 61 Ag -3.9202 -0.1161 2.1006 0
M  V30 62 Fe -3.0816 2.0013 1.4313 0
M  V30 63 Ag -2.2041 4.0861 0.7117 0
M  V30 64 Ba 5.4437 3.3848 3.2836 0
M  V30 65 Ga 5.1373 2.9936 1.8932 0
M  V30 66 Ba 4.7847 2.6937 0.4912 0
M  V30 67 Ba 1.5748 6.9444 5.0944 0
M  V30 68 Ga 3.0292 6.7274 4.9906 0
M  V30 69 Ba 4.4461 6.3597 4.8154 0
M  V30 70 Ba -1.6742 -8.6004 -2.3428 0
M  V30 71 Ga -0.2167 -8.4655 -2.5421 0
M  V30 72 Ba 1.2037 -8.1933 -2.8415 0
M  V30 73 Ba 1.2236 4.6509 5.5764 0
M  V30 74 Ga 2.6558 4.3067 5.5233 0
M  V30 75 Ba 4.0993 4.0735 5.3393 0
M  V30 76 Ba 0.1243 5.5370 -1.4456 0
M  V30 77 Ga 1.5568 5.1986 -1.5580 0
M  V30 78 Ba 2.9814 4.8168 -1.6204 0
M  V30 79 Ba 5.6768 5.6979 2.7138 0
M  V30 80 Ga 5.3314 5.3963 1.3134 0
M  V30 81 Ba 4.9234 5.0138 -0.0500 0
M  V30 82 Ba -5.2243 -1.5593 0.6245 0
M  V30 83 Ga -5.1259 -1.6188 -0.8480 0
M  V30 84 Ba -4.9936 -1.6875 -2.3175 0
M  V30 85 Ba 2.9977 2.3732 -1.3118 0
M  V30 86 Ga 2.2231 1.1921 -0.8778 0
M  V30 87 Ba 1.4332 -0.0072 -0.5302 0
M  V30 88 Ba -0.3207 6.8828 3.3808 0
M  V30 89 Ga -0.7334 6.6325 1.9868 0
M  V30 90 Ba -1.1309 6.3328 0.5981 0
M  V30 91 Ba -2.2586 -8.0049 -4.5554 0
M  V30 92 Ga -0.8360 -7.8456 -4.8966 0
M  V30 93 Ba 0.6073 -7.6125 -5.0641 0
M  V30 94 Ba -4.1533 -6.5093 -3.6884 0
M  V30 95 Ga -4.3174 -5.0391 -3.7664 0
M  V30 96 Ba -4.5246 -3.5759 -3.8683 0
M  V30 97 Ba -2.6328 -2.1673 2.8803 0
M  V30 98 Ga -1.1957 -1.9609 2.6149 0
M  V30 99 Ba 0.2188 -1.7169 2.2714 0
M  V30 END ATOM
M  V30 BEGIN BOND
M  V30 1 1 1 2
M  V30 2 1 1 3
M  V30 3 1 1 4
M  V30 4 1 1 5
M  V30 5 1 6 7
M  V30 6 1 6 8
M  V30 7 1 6 9
M  V30 8 1 6 10
M  V30 9 1 11 12
M  V30 10 1 11 13
M  V30 11 1 11 14
M  V30 12 1 11 15
M  V30 13 1 16 17
M  V30 14 1 16 18
M  V30 15 1 16 19
M  V30 16 1 16 20
M  V30 17 1 21 22
M  V30 18 1 21 23
M  V30 19 1 21 24
M  V30 20 1 21 25
M  V30 21 1 26 27
M  V30 22 1 26 28
M  V30 23 1 26 29
M  V30 24 1 26 30
M  V30 25 1 31 32
M  V30 26 1 31 33
M  V30 27 1 31 34
M  V30 28 1 31 35
M  V30 29 1 36 37
M  V30 30 1 36 38
M  V30 31 1 36 39
M  V30 32 1 36 40
M  V30 33 1 41 42
M  V30 34 1 41 43
M  V30 35 1 41 44
M  V30 36 1 41 45
M  V30 37 1 46 47
M  V30 38 1 47 48
M  V30 39 1 49 50
M  V30 40 1 50 51
M  V30 41 1 52 53
M  V30 42 1 53 54
M  V30 43 1 55 56
M  V30 44 1 56 57
M  V30 45 1 58 59
M  V30 46 1 59 60
M  V30 47 1 61 62
M  V30 48 1 62 63
M  V30 49 1 64 65
M  V30 50 1 65 66
M  V30 51 1 67 68
M  V30 52 1 68 69
M  V30 53 1 70 71
M  V30 54 1 71 72
M  V30 55 1 73 74
M  V30 56 1 74 75
M  V30 57 1 76 77
M  V30 58 1 77 78
M  V30 59 1 79 80
M  V30 60 1 80 81
M  V30 61 1 82 83
M  V30 62 1 83 84
M  V30 63 1 85 86
M  V30 64 1 86 87
M  V30 65 1 88 89
M  V30 66 1 89 90
M  V30 67 1 91 92
M  V30 68 1 92 93
M  V30 69 1 94 95
M  V30 70 1 95 96
M  V30 71 1 97 98
M  V30 72 1 98 99
M  V30 73 1 2 88
M  V30 74 1 3 67
M  V30 75 1 4 73
M  V30 76 1 5 55
M  V30 77 1 7 79
M  V30 78 1 8 75
M  V30 79 1 9 69
M  V30 80 1 10 64
M  V30 81 1 12 82
M  V30 82 1 13 97
M  V30 83 1 14 46
M  V30 84 1 15 61
M  V30 85 1 17 91
M  V30 86 1 18 94
M  V30 87 1 19 70
M  V30 88 1 20 48
M  V30 89 1 22 58
M  V30 90 1 23 76
M  V30 91 1 24 63
M  V30 92 1 25 90
M  V30 93 1 27 81
M  V30 94 1 28 85
M  V30 95 1 29 66
M  V30 96 1 30 78
M  V30 97 1 32 60
M  V30 98 1 33 52
M  V30 99 1 34 84
M  V30 100 1 35 96
M  V30 101 1 37 49
M  V30 102 1 38 99
M  V30 103 1 39 57
M  V30 104 1 40 87
M  V30 105 1 42 72
M  V30 106 1 43 93
M  V30 107 1 44 54
M  V30 108 1 45 51
M  V30 END BOND
M  V30 END CTAB
M  END

$$$$
