
     RDKit          3D

  0  0  0  0  0  0  0  0  0  0999 V3000
M  V30 BEGIN CTAB
M  V30 COUNTS 99 108 0 0 0
M  V30 BEGIN ATOM
M  V30 1 Pd 3.4603 -0.3437 -3.6753 0
M  V30 2 Pb 3.2166 -1.1106 -4.2677 0
M  V30 3 Pb 4.3793 -0.4065 -4.0620 0
M  V30 4 Pb 3.7388 0.3636 -3.0280 0
M  V30 5 Pb 2.5946 -0.4190 -3.1818 0
M  V30 6 Pd -2.1929 6.2395 1.2928 0
M  V30 7 Pb -1.5971 5.7429 1.9281 0
M  V30 8 Pb -2.7683 6.4518 2.0860 0
M  V30 9 Pb -1.6241 5.9964 0.5107 0
M  V30 10 Pb -2.7970 6.6902 0.6273 0
M  V30 11 Pd -1.3387 -2.6695 3.1691 0
M  V30 12 Pb -1.9503 -2.7562 2.3800 0
M  V30 13 Pb -0.8014 -3.4465 2.8344 0
M  V30 14 Pb -0.7096 -2.5313 3.9355 0
M  V30 15 Pb -1.8877 -1.9184 3.5370 0
M  V30 16 Pd -6.2407 4.5092 -1.4883 0
M  V30 17 Pb -6.6873 3.6871 -1.1268 0
M  V30 18 Pb -5.8436 3.9848 -2.2458 0
M  V30 19 Pb -6.7192 5.0451 -0.8010 0
M  V30 20 Pb -5.7195 5.3373 -1.6962 0
M  V30 21 Pd -6.1391 3.6645 3.2966 0
M  V30 22 Pb -6.5844 3.0088 2.6813 0
M  V30 23 Pb -5.5646 2.9494 3.6942 0
M  V30 24 Pb -5.6436 4.3834 3.7815 0
M  V30 25 Pb -6.7111 4.3816 2.9174 0
M  V30 26 Pd 6.7306 -6.3430 -3.9435 0
M  V30 27 Pb 7.4156 -6.4432 -3.2241 0
M  V30 28 Pb 7.1196 -5.4687 -4.2354 0
M  V30 29 Pb 6.2685 -7.1517 -3.5823 0
M  V30 30 Pb 5.9673 -6.1481 -4.5559 0
M  V30 31 Pd -2.2545 0.7413 -3.0663 0
M  V30 32 Pb -2.7766 -0.0523 -2.7591 0
M  V30 33 Pb -1.4502 0.3002 -2.6757 0
M  V30 34 Pb -1.7202 1.5677 -3.2147 0
M  V30 35 Pb -3.0619 1.2034 -3.4339 0
M  V30 36 Pd 5.1794 -6.3511 0.6702 0
M  V30 37 Pb 4.2086 -6.3289 0.9160 0
M  V30 38 Pb 6.1453 -6.3760 0.4036 0
M  V30 39 Pb 5.0217 -7.1191 0.0482 0
M  V30 40 Pb 5.3421 -5.5602 1.2605 0
M  V30 41 Pd 2.7928 0.5183 3.5695 0
M  V30 42 Pb 2.3401 -0.0279 4.2758 0
M  V30 43 Pb 3.2160 1.0185 2.8152 0
M  V30 44 Pb 2.1695 1.2888 3.7187 0
M  V30 45 Pb 3.4495 -0.2277 3.4481 0
M  V30 46 Ag 5.0591 -0.6063 -4.3049 0
M  V30 47 Fe 6.3614 -2.5855 -4.4615 0
M  V30 48 Ag 7.2984 -4.7672 -4.4326 0
M  V30 49 Ag 5.4569 -4.9554 1.6892 0
M  V30 50 Fe 4.6925 -2.8689 2.5300 0
M  V30 51 Ag 3.9558 -0.7792 3.3872 0
M  V30 52 Ag -0.4242 -4.0502 2.5911 0
M  V30 53 Fe 1.5465 -5.1509 1.8458 0
M  V30 54 Ag 3.4785 -6.3140 1.0938 0
M  V30 55 Ag -2.2805 -1.3703 3.8665 0
M  V30 56 Fe -3.7140 0.5235 3.8764 0
M  V30 57 Ag -5.1399 2.4183 4.0100 0
M  V30 58 Ag -2.3814 -2.7863 1.7644 0
M  V30 59 Fe -2.8474 -1.8115 -0.3515 0
M  V30 60 Ag -3.0832 -0.6345 -2.4015 0
M  V30 61 Ag -1.2654 5.7888 -0.1106 0
M  V30 62 Fe -1.1576 4.0912 -1.7600 0
M  V30 63 Ag -1.3403 2.2075 -3.1850 0
M  V30 64 Ag -1.1907 5.3653 2.4367 0
M  V30 65 Fe 0.2748 3.6120 3.0938 0
M  V30 66 Ag 1.7362 1.8915 3.8409 0
M  V30 67 Ag 3.9230 0.8415 -2.4823 0
M  V30 68 Fe 3.7759 1.2077 -0.1421 0
M  V30 69 Ag 3.5029 1.3553 2.2109 0
M  V30 70 Ag 3.1294 -1.7325 -4.6755 0
M  V30 71 Fe 4.1088 -3.8726 -4.9736 0
M  V30 72 Ag 5.3834 -5.8727 -4.9326 0
M  V30 73 Ba -5.6226 3.5899 -2.8482 0
M  V30 74 Ga -4.6162 2.5834 -3.2443 0
M  V30 75 Ba -3.6445 1.5781 -3.7223 0
M  V30 76 Ba -3.1941 6.9897 0.0578 0
M  V30 77 Ga -4.2627 6.5070 -0.8474 0
M  V30 78 Ba -5.3348 5.9826 -1.7247 0
M  V30 79 Ba 7.8482 -6.4885 -2.6148 0
M  V30 80 Ga 7.4191 -6.4589 -1.2031 0
M  V30 81 Ba 6.8561 -6.4183 0.1608 0
M  V30 82 Ba -0.2499 -2.3718 4.5080 0
M  V30 83 Ga 0.8812 -1.4348 4.6632 0
M  V30 84 Ba 2.0068 -0.4845 4.7705 0
M  V30 85 Ba -3.1518 6.5535 2.7262 0
M  V30 86 Ga -4.2130 5.7919 3.4163 0
M  V30 87 Ba -5.2772 4.9821 4.0440 0
M  V30 88 Ba 2.0041 -0.5377 -2.7356 0
M  V30 89 Ga 0.5650 -0.2532 -2.6036 0
M  V30 90 Ba -0.8708 -0.0418 -2.3514 0
M  V30 91 Ba 5.9038 -7.7087 -3.2392 0
M  V30 92 Ga 5.3961 -7.7567 -1.8555 0
M  V30 93 Ba 4.9424 -7.6708 -0.4547 0
M  V30 94 Ba -6.9853 3.0979 -0.7636 0
M  V30 95 Ga -6.9768 2.7823 0.6837 0
M  V30 96 Ba -6.9009 2.5785 2.1490 0
M  V30 97 Ba -7.0916 5.4300 -0.2843 0
M  V30 98 Ga -7.1553 5.2415 1.1652 0
M  V30 99 Ba -7.1065 4.9181 2.5911 0
M  V30 END ATOM
M  V30 BEGIN BOND
M  V30 1 1 1 2
M  V30 2 1 1 3
M  V30 3 1 1 4
M  V30 4 1 1 5
M  V30 5 1 6 7
M  V30 6 1 6 8
M  V30 7 1 6 9
M  V30 8 1 6 10
M  V30 9 1 11 12
M  V30 10 1 11 13
M  V30 11 1 11 14
M  V30 12 1 11 15
M  V30 13 1 16 17
M  V30 14 1 16 18
M  V30 15 1 16 19
M  V30 16 1 16 20
M  V30 17 1 21 22
M  V30 18 1 21 23
M  V30 19 1 21 24
M  V30 20 1 21 25
M  V30 21 1 26 27
M  V30 22 1 26 28
M  V30 23 1 26 29
M  V30 24 1 26 30
M  V30 25 1 31 32
M  V30 26 1 31 33
M  V30 27 1 31 34
M  V30 28 1 31 35
M  V30 29 1 36 37
M  V30 30 1 36 38
M  V30 31 1 36 39
M  V30 32 1 36 40
M  V30 33 1 41 42
M  V30 34 1 41 43
M  V30 35 1 41 44
M  V30 36 1 41 45
M  V30 37 1 46 47
M  V30 38 1 47 48
M  V30 39 1 49 50
M  V30 40 1 50 51
M  V30 41 1 52 53
M  V30 42 1 53 54
M  V30 43 1 55 56
M  V30 44 1 56 57
M  V30 45 1 58 59
M  V30 46 1 59 60
M  V30 47 1 61 62
M  V30 48 1 62 63
M  V30 49 1 64 65
M  V30 50 1 65 66
M  V30 51 1 67 68
M  V30 52 1 68 69
M  V30 53 1 70 71
M  V30 54 1 71 72
M  V30 55 1 73 74
M  V30 56 1 74 75
M  V30 57 1 76 77
M  V30 58 1 77 78
M  V30 59 1 79 80
M  V30 60 1 80 81
M  V30 61 1 82 83
M  V30 62 1 83 84
M  V30 63 1 85 86
M  V30 64 1 86 87
M  V30 65 1 88 89
M  V30 66 1 89 90
M  V30 67 1 91 92
M  V30 68 1 92 93
M  V30 69 1 94 95
M  V30 70 1 95 96
M  V30 71 1 97 98
M  V30 72 1 98 99
M  V30 73 1 2 70
M  V30 74 1 3 46
M  V30 75 1 4 67
M  V30 76 1 5 88
M  V30 77 1 7 64
M  V30 78 1 8 85
M  V30 79 1 9 61
M  V30 80 1 10 76
M  V30 81 1 12 58
M  V30 82 1 13 52
M  V30 83 1 14 82
M  V30 84 1 15 55
M  V30 85 1 17 94
M  V30 86 1 18 73
M  V30 87 1 19 97
M  V30 88 1 20 78
M  V30 89 1 22 96
M  V30 90 1 23 57
M  V30 91 1 24 87
M  V30 92 1 25 99
M  V30 93 1 27 79
M  V30 94 1 28 48
M  V30 95 1 29 91
M  V30 96 1 30 72
M  V30 97 1 32 60
M  V30 98 1 33 90
M  V30 99 1 34 63
M  V30 100 1 35 75
M  V30 101 1 37 54
M  V30 102 1 38 81
M  V30 103 1 39 93
M  V30 104 1 40 49
M  V30 105 1 42 84
M  V30 106 1 43 69
M  V30 107 1 44 66
M  V30 108 1 45 51
M  V30 END BOND
M  V30 END CTAB
M  END

$$$$
