
     RDKit          3D

  0  0  0  0  0  0  0  0  0  0999 V3000
M  V30 BEGIN CTAB
M  V30 COUNTS 99 108 0 0 0
M  V30 BEGIN ATOM
M  V30 1 Pd 1.6353 -2.8356 4.2058 0
M  V30 2 Pb 0.6889 -3.1662 4.1771 0
M  V30 3 Pb 1.9524 -3.7246 3.8676 0
M  V30 4 Pb 1.3434 -1.9833 4.6410 0
M  V30 5 Pb 2.5707 -2.4799 4.2121 0
M  V30 6 Pd 2.1510 -3.1501 -3.2129 0
M  V30 7 Pb 1.4834 -2.5697 -2.7534 0
M  V30 8 Pb 1.6153 -3.9645 -2.9858 0
M  V30 9 Pb 2.7568 -2.3658 -3.3401 0
M  V30 10 Pb 2.8532 -3.7432 -3.5947 0
M  V30 11 Pd -5.4991 1.4370 -4.2926 0
M  V30 12 Pb -5.5004 0.4650 -4.0549 0
M  V30 13 Pb -4.6967 1.3269 -4.8729 0
M  V30 14 Pb -5.4141 2.4219 -4.4448 0
M  V30 15 Pb -6.2133 1.5503 -3.6032 0
M  V30 16 Pd -1.0641 6.6661 -1.6594 0
M  V30 17 Pb -1.7224 6.5785 -2.4083 0
M  V30 18 Pb -1.8209 6.7674 -1.0146 0
M  V30 19 Pb -0.2825 6.5086 -2.2658 0
M  V30 20 Pb -0.4555 6.6834 -0.8664 0
M  V30 21 Pd 1.4163 2.2497 -2.5156 0
M  V30 22 Pb 1.0501 1.3855 -2.1754 0
M  V30 23 Pb 0.9037 2.0973 -3.3588 0
M  V30 24 Pb 1.6876 3.1550 -2.8449 0
M  V30 25 Pb 1.9229 2.3728 -1.6600 0
M  V30 26 Pd -2.0438 4.0007 4.8839 0
M  V30 27 Pb -2.6364 4.6050 4.3536 0
M  V30 28 Pb -2.8229 3.4520 5.1828 0
M  V30 29 Pb -1.4309 3.3527 5.3315 0
M  V30 30 Pb -1.2709 4.5076 4.5022 0
M  V30 31 Pd -5.7158 -1.6610 2.0891 0
M  V30 32 Pb -5.0552 -2.2895 2.5053 0
M  V30 33 Pb -5.7585 -1.1444 2.9429 0
M  V30 34 Pb -6.3305 -1.0069 1.6463 0
M  V30 35 Pb -5.6350 -2.0999 1.1941 0
M  V30 36 Pd 4.9870 -0.7384 0.4686 0
M  V30 37 Pb 4.4934 0.1321 0.5388 0
M  V30 38 Pb 5.5204 -1.5874 0.4283 0
M  V30 39 Pb 4.9555 -0.6498 -0.5294 0
M  V30 40 Pb 5.0034 -0.8362 1.4646 0
M  V30 41 Pd 4.0259 -5.9620 -0.0921 0
M  V30 42 Pb 3.1411 -6.2735 -0.4378 0
M  V30 43 Pb 3.6808 -5.9784 0.8476 0
M  V30 44 Pb 4.8755 -5.5219 0.1917 0
M  V30 45 Pb 4.3678 -5.9714 -1.0300 0
M  V30 46 Ag -0.0211 -3.4142 4.1401 0
M  V30 47 Fe -2.2844 -3.0875 3.4875 0
M  V30 48 Ag -4.5413 -2.7364 2.8252 0
M  V30 49 Ag -2.3387 6.7937 -0.4738 0
M  V30 50 Fe -2.8223 6.0011 1.7107 0
M  V30 51 Ag -3.0060 5.0483 3.8768 0
M  V30 52 Ag -6.6709 1.5560 -3.0100 0
M  V30 53 Fe -6.8567 0.5968 -0.8454 0
M  V30 54 Ag -6.7433 -0.5253 1.2447 0
M  V30 55 Ag -5.4914 -0.2321 -3.7761 0
M  V30 56 Fe -5.5325 -1.4303 -1.7252 0
M  V30 57 Ag -5.5917 -2.3181 0.4775 0
M  V30 58 Ag -0.0785 6.6470 -0.2194 0
M  V30 59 Fe -0.2597 5.8235 2.0005 0
M  V30 60 Ag -0.7426 4.8863 4.1284 0
M  V30 61 Ag -5.2474 3.1478 -4.5365 0
M  V30 62 Fe -3.8027 4.8844 -3.8000 0
M  V30 63 Ag -2.2650 6.4651 -2.9152 0
M  V30 64 Ag 1.1683 -1.3601 5.0214 0
M  V30 65 Fe 0.0908 0.7355 5.3140 0
M  V30 66 Ag -0.9796 2.8325 5.6236 0
M  V30 67 Ag -3.3899 2.9921 5.3485 0
M  V30 68 Fe -4.6436 1.1392 4.5566 0
M  V30 69 Ag -5.7440 -0.7072 3.5505 0
M  V30 70 Ag -4.0337 1.3029 -5.2147 0
M  V30 71 Fe -1.7292 1.5982 -4.7396 0
M  V30 72 Ag 0.4827 1.9498 -3.9598 0
M  V30 73 Ba 1.0094 -2.1383 -2.3697 0
M  V30 74 Ga 0.8706 -0.6881 -2.1583 0
M  V30 75 Ba 0.7183 0.7589 -1.9351 0
M  V30 76 Ba 2.2875 2.4458 -1.0064 0
M  V30 77 Ga 3.2186 1.6112 -0.2174 0
M  V30 78 Ba 4.1505 0.8004 0.5952 0
M  V30 79 Ba 0.3273 6.3600 -2.6798 0
M  V30 80 Ga 1.1003 5.1224 -2.9105 0
M  V30 81 Ba 1.8247 3.8487 -3.0980 0
M  V30 82 Ba 3.3972 -4.2170 -3.7788 0
M  V30 83 Ga 4.0610 -5.1301 -2.8408 0
M  V30 84 Ba 4.5847 -5.9558 -1.7457 0
M  V30 85 Ba 1.2879 -4.5993 -2.7542 0
M  V30 86 Ga 1.8022 -5.5670 -1.7658 0
M  V30 87 Ba 2.4785 -6.4101 -0.7613 0
M  V30 88 Ba 3.2529 -1.8055 -3.3808 0
M  V30 89 Ga 4.0870 -1.1650 -2.3443 0
M  V30 90 Ba 4.9014 -0.5551 -1.2741 0
M  V30 91 Ba 3.2566 -2.1743 4.2211 0
M  V30 92 Ga 4.1429 -1.5615 3.2119 0
M  V30 93 Ba 5.0330 -0.9475 2.2067 0
M  V30 94 Ba 5.9425 -2.2107 0.4704 0
M  V30 95 Ga 5.7280 -3.6708 0.4077 0
M  V30 96 Ba 5.4948 -5.1276 0.3382 0
M  V30 97 Ba 2.1827 -4.4182 3.6885 0
M  V30 98 Ga 2.8032 -5.1734 2.5809 0
M  V30 99 Ba 3.4177 -6.0333 1.5488 0
M  V30 END ATOM
M  V30 BEGIN BOND
M  V30 1 1 1 2
M  V30 2 1 1 3
M  V30 3 1 1 4
M  V30 4 1 1 5
M  V30 5 1 6 7
M  V30 6 1 6 8
M  V30 7 1 6 9
M  V30 8 1 6 10
M  V30 9 1 11 12
M  V30 10 1 11 13
M  V30 11 1 11 14
M  V30 12 1 11 15
M  V30 13 1 16 17
M  V30 14 1 16 18
M  V30 15 1 16 19
M  V30 16 1 16 20
M  V30 17 1 21 22
M  V30 18 1 21 23
M  V30 19 1 21 24
M  V30 20 1 21 25
M  V30 21 1 26 27
M  V30 22 1 26 28
M  V30 23 1 26 29
M  V30 24 1 26 30
M  V30 25 1 31 32
M  V30 26 1 31 33
M  V30 27 1 31 34
M  V30 28 1 31 35
M  V30 29 1 36 37
M  V30 30 1 36 38
M  V30 31 1 36 39
M  V30 32 1 36 40
M  V30 33 1 41 42
M  V30 34 1 41 43
M  V30 35 1 41 44
M  V30 36 1 41 45
M  V30 37 1 46 47
M  V30 38 1 47 48
M  V30 39 1 49 50
M  V30 40 1 50 51
M  V30 41 1 52 53
M  V30 42 1 53 54
M  V30 43 1 55 56
M  V30 44 1 56 57
M  V30 45 1 58 59
M  V30 46 1 59 60
M  V30 47 1 61 62
M  V30 48 1 62 63
M  V30 49 1 64 65
M  V30 50 1 65 66
M  V30 51 1 67 68
M  V30 52 1 68 69
M  V30 53 1 70 71
M  V30 54 1 71 72
M  V30 55 1 73 74
M  V30 56 1 74 75
M  V30 57 1 76 77
M  V30 58 1 77 78
M  V30 59 1 79 80
M  V30 60 1 80 81
M  V30 61 1 82 83
M  V30 62 1 83 84
M  V30 63 1 85 86
M  V30 64 1 86 87
M  V30 65 1 88 89
M  V30 66 1 89 90
M  V30 67 1 91 92
M  V30 68 1 92 93
M  V30 69 1 94 95
M  V30 70 1 95 96
M  V30 71 1 97 98
M  V30 72 1 98 99
M  V30 73 1 2 46
M  V30 74 1 3 97
M  V30 75 1 4 64
M  V30 76 1 5 91
M  V30 77 1 7 73
M  V30 78 1 8 85
M  V30 79 1 9 88
M  V30 80 1 10 82
M  V30 81 1 12 55
M  V30 82 1 13 70
M  V30 83 1 14 61
M  V30 84 1 15 52
M  V30 85 1 17 63
M  V30 86 1 18 49
M  V30 87 1 19 79
M  V30 88 1 20 58
M  V30 89 1 22 75
M  V30 90 1 23 72
M  V30 91 1 24 81
M  V30 92 1 25 76
M  V30 93 1 27 51
M  V30 94 1 28 67
M  V30 95 1 29 66
M  V30 96 1 30 60
M  V30 97 1 32 48
M  V30 98 1 33 69
M  V30 99 1 34 54
M  V30 100 1 35 57
M  V30 101 1 37 78
M  V30 102 1 38 94
M  V30 103 1 39 90
M  V30 104 1 40 93
M  V30 105 1 42 87
M  V30 106 1 43 99
M  V30 107 1 44 96
M  V30 108 1 45 84
M  V30 END BOND
M  V30 END CTAB
M  END

$$$$
