
     RDKit          3D

  0  0  0  0  0  0  0  0  0  0999 V3000
M  V30 BEGIN CTAB
M  V30 COUNTS 99 108 0 0 0
M  V30 BEGIN ATOM
M  V30 1 Pd 0.7520 -0.4372 -3.9403 0
M  V30 2 Pb 0.1852 0.0439 -3.2773 0
M  V30 3 Pb 1.2594 -0.9298 -4.6552 0
M  V30 4 Pb 1.1641 -1.0242 -3.2398 0
M  V30 5 Pb 0.3337 0.2121 -4.5747 0
M  V30 6 Pd 6.0033 2.8307 -1.2318 0
M  V30 7 Pb 5.6369 2.9039 -0.3071 0
M  V30 8 Pb 6.3902 2.7231 -2.1614 0
M  V30 9 Pb 5.5773 3.7113 -1.4587 0
M  V30 10 Pb 6.3959 1.9425 -1.0070 0
M  V30 11 Pd -6.6592 0.0297 5.8364 0
M  V30 12 Pb -7.0450 0.7048 5.2163 0
M  V30 13 Pb -6.0590 0.7387 6.2017 0
M  V30 14 Pb -6.2155 -0.6578 6.4116 0
M  V30 15 Pb -7.1541 -0.6634 5.3054 0
M  V30 16 Pd -0.7307 -4.4041 5.6204 0
M  V30 17 Pb -1.4350 -4.1713 6.2903 0
M  V30 18 Pb -0.0829 -4.5992 4.8590 0
M  V30 19 Pb -0.2240 -3.5809 5.8788 0
M  V30 20 Pb -1.2610 -5.2027 5.3589 0
M  V30 21 Pd 0.1556 2.9330 4.1013 0
M  V30 22 Pb 1.0808 2.9398 3.7265 0
M  V30 23 Pb -0.7312 2.9743 4.5668 0
M  V30 24 Pb 0.4523 2.2540 4.7719 0
M  V30 25 Pb -0.1491 3.5297 3.3544 0
M  V30 26 Pd -0.2467 -4.7293 -0.2073 0
M  V30 27 Pb 0.2773 -4.8498 0.6568 0
M  V30 28 Pb -0.8599 -4.5463 -0.9737 0
M  V30 29 Pb 0.4252 -4.0606 -0.5348 0
M  V30 30 Pb -0.8819 -5.4300 0.0975 0
M  V30 31 Pd -6.1687 -0.4470 -0.9552 0
M  V30 32 Pb -5.4229 0.1494 -1.2399 0
M  V30 33 Pb -5.7126 -1.1960 -1.4362 0
M  V30 34 Pb -6.7913 -1.0545 -0.4573 0
M  V30 35 Pb -6.5912 0.3052 -0.4592 0
M  V30 36 Pd 1.2386 4.5525 -3.3690 0
M  V30 37 Pb 0.7121 4.6781 -2.5217 0
M  V30 38 Pb 1.7476 4.4336 -4.2162 0
M  V30 39 Pb 2.0322 4.9985 -2.9475 0
M  V30 40 Pb 0.5065 4.0554 -3.8420 0
M  V30 41 Pd 5.6511 -0.3704 -5.9432 0
M  V30 42 Pb 6.2626 0.3344 -5.5579 0
M  V30 43 Pb 4.9277 -1.0030 -6.2139 0
M  V30 44 Pb 5.2181 0.3593 -6.4604 0
M  V30 45 Pb 6.0643 -1.0456 -5.3386 0
M  V30 46 Ag 5.3704 2.9457 0.3897 0
M  V30 47 Fe 3.5487 2.9510 1.9099 0
M  V30 48 Ag 1.7966 2.9667 3.5096 0
M  V30 49 Ag -0.3189 0.4446 -2.8987 0
M  V30 50 Fe -2.5468 0.5580 -2.0926 0
M  V30 51 Ag -4.7943 0.5425 -1.3347 0
M  V30 52 Ag -0.3585 3.9282 2.7498 0
M  V30 53 Fe -0.0241 4.3775 0.4363 0
M  V30 54 Ag 0.3363 4.8017 -1.8782 0
M  V30 55 Ag 0.1211 -2.9448 6.0783 0
M  V30 56 Fe 0.4355 -0.6206 5.7038 0
M  V30 57 Ag 0.6624 1.6944 5.2241 0
M  V30 58 Ag -7.4685 -1.1090 4.7843 0
M  V30 59 Fe -7.4670 -1.4315 2.4256 0
M  V30 60 Ag -7.1864 -1.4316 0.0616 0
M  V30 61 Ag 6.6497 1.2441 -0.9814 0
M  V30 62 Fe 6.7249 -0.4627 -2.6086 0
M  V30 63 Ag 6.3645 -1.3828 -4.7502 0
M  V30 64 Ag -7.2800 1.1473 4.6670 0
M  V30 65 Fe -7.2141 1.2051 2.3029 0
M  V30 66 Ag -6.8941 0.8135 -0.0082 0
M  V30 67 Ag -1.6306 -5.7453 5.0184 0
M  V30 68 Fe -1.7930 -6.2497 2.7254 0
M  V30 69 Ag -1.3131 -5.9213 0.4445 0
M  V30 70 Ag -5.8321 -1.1619 6.8137 0
M  V30 71 Fe -3.9411 -2.5976 6.8691 0
M  V30 72 Ag -2.0055 -3.9666 6.7314 0
M  V30 73 Ag 2.0940 4.2798 -4.8579 0
M  V30 74 Fe 3.4859 2.7157 -5.9627 0
M  V30 75 Ag 4.8867 0.9680 -6.7282 0
M  V30 76 Ag -1.4028 -4.3887 -1.4645 0
M  V30 77 Fe -3.3741 -3.0939 -1.7390 0
M  V30 78 Ag -5.3057 -1.7140 -1.7957 0
M  V30 79 Ag -5.5634 1.2779 6.3583 0
M  V30 80 Fe -3.4592 2.1705 5.7082 0
M  V30 81 Ag -1.3515 3.0030 4.9925 0
M  V30 82 Ba 0.4085 -4.7527 4.2884 0
M  V30 83 Ga 0.4752 -4.8262 2.7941 0
M  V30 84 Ba 0.6676 -4.9334 1.3128 0
M  V30 85 Ba 6.7346 2.6226 -2.8345 0
M  V30 86 Ga 6.6692 1.7406 -4.0335 0
M  V30 87 Ba 6.6730 0.9041 -5.2664 0
M  V30 88 Ba 5.2445 4.3747 -1.5937 0
M  V30 89 Ga 3.9439 4.8354 -2.1297 0
M  V30 90 Ba 2.6507 5.3204 -2.6623 0
M  V30 91 Ba 1.5028 -1.4288 -2.7033 0
M  V30 92 Ga 1.1840 -2.5146 -1.7519 0
M  V30 93 Ba 0.9690 -3.5932 -0.7640 0
M  V30 94 Ba -0.0370 0.7675 -4.9186 0
M  V30 95 Ga -0.0257 2.2209 -4.6387 0
M  V30 96 Ba 0.0497 3.6581 -4.2924 0
M  V30 97 Ba 1.6157 -1.3303 -5.1877 0
M  V30 98 Ga 2.9672 -1.3887 -5.7847 0
M  V30 99 Ba 4.3268 -1.4240 -6.3645 0
M  V30 END ATOM
M  V30 BEGIN BOND
M  V30 1 1 1 2
M  V30 2 1 1 3
M  V30 3 1 1 4
M  V30 4 1 1 5
M  V30 5 1 6 7
M  V30 6 1 6 8
M  V30 7 1 6 9
M  V30 8 1 6 10
M  V30 9 1 11 12
M  V30 10 1 11 13
M  V30 11 1 11 14
M  V30 12 1 11 15
M  V30 13 1 16 17
M  V30 14 1 16 18
M  V30 15 1 16 19
M  V30 16 1 16 20
M  V30 17 1 21 22
M  V30 18 1 21 23
M  V30 19 1 21 24
M  V30 20 1 21 25
M  V30 21 1 26 27
M  V30 22 1 26 28
M  V30 23 1 26 29
M  V30 24 1 26 30
M  V30 25 1 31 32
M  V30 26 1 31 33
M  V30 27 1 31 34
M  V30 28 1 31 35
M  V30 29 1 36 37
M  V30 30 1 36 38
M  V30 31 1 36 39
M  V30 32 1 36 40
M  V30 33 1 41 42
M  V30 34 1 41 43
M  V30 35 1 41 44
M  V30 36 1 41 45
M  V30 37 1 46 47
M  V30 38 1 47 48
M  V30 39 1 49 50
M  V30 40 1 50 51
M  V30 41 1 52 53
M  V30 42 1 53 54
M  V30 43 1 55 56
M  V30 44 1 56 57
M  V30 45 1 58 59
M  V30 46 1 59 60
M  V30 47 1 61 62
M  V30 48 1 62 63
M  V30 49 1 64 65
M  V30 50 1 65 66
M  V30 51 1 67 68
M  V30 52 1 68 69
M  V30 53 1 70 71
M  V30 54 1 71 72
M  V30 55 1 73 74
M  V30 56 1 74 75
M  V30 57 1 76 77
M  V30 58 1 77 78
M  V30 59 1 79 80
M  V30 60 1 80 81
M  V30 61 1 82 83
M  V30 62 1 83 84
M  V30 63 1 85 86
M  V30 64 1 86 87
M  V30 65 1 88 89
M  V30 66 1 89 90
M  V30 67 1 91 92
M  V30 68 1 92 93
M  V30 69 1 94 95
M  V30 70 1 95 96
M  V30 71 1 97 98
M  V30 72 1 98 99
M  V30 73 1 2 49
M  V30 74 1 3 97
M  V30 75 1 4 91
M  V30 76 1 5 94
M  V30 77 1 7 46
M  V30 78 1 8 85
M  V30 79 1 9 88
M  V30 80 1 10 61
M  V30 81 1 12 64
M  V30 82 1 13 79
M  V30 83 1 14 70
M  V30 84 1 15 58
M  V30 85 1 17 72
M  V30 86 1 18 82
M  V30 87 1 19 55
M  V30 88 1 20 67
M  V30 89 1 22 48
M  V30 90 1 23 81
M  V30 91 1 24 57
M  V30 92 1 25 52
M  V30 93 1 27 84
M  V30 94 1 28 76
M  V30 95 1 29 93
M  V30 96 1 30 69
M  V30 97 1 32 51
M  V30 98 1 33 78
M  V30 99 1 34 60
M  V30 100 1 35 66
M  V30 101 1 37 54
M  V30 102 1 38 73
M  V30 103 1 39 90
M  V30 104 1 40 96
M  V30 105 1 42 87
M  V30 106 1 43 99
M  V30 107 1 44 75
M  V30 108 1 45 63
M  V30 END BOND
M  V30 END CTAB
M  END

$$$$
