
     RDKit          3D

  0  0  0  0  0  0  0  0  0  0999 V3000
M  V30 BEGIN CTAB
M  V30 COUNTS 99 108 0 0 0
M  V30 BEGIN ATOM
M  V30 1 Pd -0.5066 -5.5112 -0.6938 0
M  V30 2 Pb -1.2886 -5.3809 -1.3071 0
M  V30 3 Pb 0.3162 -5.5743 -0.1344 0
M  V30 4 Pb -0.2191 -6.3525 -1.1593 0
M  V30 5 Pb -0.7549 -4.6905 -0.1827 0
M  V30 6 Pd 3.9634 -6.3654 -2.6398 0
M  V30 7 Pb 4.4292 -5.4820 -2.8210 0
M  V30 8 Pb 3.3286 -7.1285 -2.5262 0
M  V30 9 Pb 3.7911 -6.1148 -1.6889 0
M  V30 10 Pb 4.1500 -6.6445 -3.5761 0
M  V30 11 Pd 0.5124 5.2651 -1.1293 0
M  V30 12 Pb -0.4338 5.2067 -1.4525 0
M  V30 13 Pb 1.4314 5.2184 -0.7371 0
M  V30 14 Pb 0.2218 5.8822 -0.4043 0
M  V30 15 Pb 0.7730 4.6345 -1.8536 0
M  V30 16 Pd -3.2841 4.9467 5.2208 0
M  V30 17 Pb -3.6663 4.2471 5.8212 0
M  V30 18 Pb -3.9624 4.7535 4.5040 0
M  V30 19 Pb -2.5621 5.0945 5.9019 0
M  V30 20 Pb -2.8628 5.6292 4.6309 0
M  V30 21 Pd -1.5025 -1.4542 -3.8486 0
M  V30 22 Pb -1.4749 -1.2588 -2.8699 0
M  V30 23 Pb -1.4540 -1.5924 -4.8348 0
M  V30 24 Pb -0.9267 -0.6533 -3.9888 0
M  V30 25 Pb -2.0300 -2.2936 -3.6938 0
M  V30 26 Pd 2.8450 -1.7137 -5.6369 0
M  V30 27 Pb 3.5668 -2.0446 -5.0024 0
M  V30 28 Pb 2.4954 -1.0638 -4.9547 0
M  V30 29 Pb 3.1772 -2.3521 -6.3236 0
M  V30 30 Pb 2.0598 -1.5276 -6.2276 0
M  V30 31 Pd -3.4199 2.0375 0.4975 0
M  V30 32 Pb -2.7843 1.3942 0.0662 0
M  V30 33 Pb -3.4578 1.3470 1.2148 0
M  V30 34 Pb -3.3310 2.7264 -0.2285 0
M  V30 35 Pb -4.0352 2.6475 1.0091 0
M  V30 36 Pd 1.8609 1.4140 1.5603 0
M  V30 37 Pb 2.0808 1.4035 2.5418 0
M  V30 38 Pb 2.4716 2.1929 1.4093 0
M  V30 39 Pb 1.1992 0.6755 1.6790 0
M  V30 40 Pb 1.6793 1.3916 0.5733 0
M  V30 41 Pd -0.4419 1.4302 6.7496 0
M  V30 42 Pb -0.2330 2.3267 7.1359 0
M  V30 43 Pb -1.3684 1.5176 7.1124 0
M  V30 44 Pb -0.7650 0.6291 6.2588 0
M  V30 45 Pb 0.4640 1.3720 6.3224 0
M  V30 46 Ag -0.0360 6.3098 0.1489 0
M  V30 47 Fe -1.2650 6.3195 2.1742 0
M  V30 48 Ag -2.5157 6.1058 4.1748 0
M  V30 49 Ag 4.2636 -6.7056 -4.3050 0
M  V30 50 Fe 3.9984 -5.0912 -5.9954 0
M  V30 51 Ag 3.4232 -2.9277 -6.7185 0
M  V30 52 Ag -3.3727 0.8105 1.7269 0
M  V30 53 Fe -2.3140 0.2680 3.7748 0
M  V30 54 Ag -1.1311 0.1516 5.8228 0
M  V30 55 Ag -0.8893 -4.0867 0.2384 0
M  V30 56 Fe -0.1380 -1.9681 0.9998 0
M  V30 57 Ag 0.6744 0.1427 1.7190 0
M  V30 58 Ag 2.2078 -0.5614 -4.4700 0
M  V30 59 Fe 1.9052 0.3764 -2.3037 0
M  V30 60 Ag 1.5544 1.3702 -0.1698 0
M  V30 61 Ag 0.9080 4.1390 -2.3931 0
M  V30 62 Fe 0.2704 2.0417 -3.2928 0
M  V30 63 Ag -0.4737 -0.0669 -4.0772 0
M  V30 64 Ba 2.2900 1.3765 3.2674 0
M  V30 65 Ga 1.6802 1.3629 4.6168 0
M  V30 66 Ba 1.1430 1.3453 5.9969 0
M  V30 67 Ba 0.9695 -5.5876 0.2272 0
M  V30 68 Ga 2.3253 -5.7719 -0.3127 0
M  V30 69 Ba 3.6244 -5.9702 -0.9739 0
M  V30 70 Ba -2.0003 5.1573 6.4003 0
M  V30 71 Ga -1.0544 4.1521 6.9268 0
M  V30 72 Ba -0.1852 3.0395 7.3604 0
M  V30 73 Ba 0.0533 -6.9903 -1.4548 0
M  V30 74 Ga 1.3908 -7.3582 -1.9661 0
M  V30 75 Ba 2.7611 -7.6140 -2.4582 0
M  V30 76 Ba -1.3080 -1.6038 -5.5676 0
M  V30 77 Ga 0.0267 -1.5424 -6.1885 0
M  V30 78 Ba 1.4302 -1.4835 -6.6336 0
M  V30 79 Ba 4.7360 -4.7964 -2.9709 0
M  V30 80 Ga 4.3896 -3.5761 -3.7648 0
M  V30 81 Ba 4.1065 -2.3248 -4.5352 0
M  V30 82 Ba -1.1465 5.1073 -1.6704 0
M  V30 83 Ga -2.2143 4.1866 -1.2210 0
M  V30 84 Ba -3.2712 3.2589 -0.7601 0
M  V30 85 Ba -1.3755 -1.0741 -2.1511 0
M  V30 86 Ga -1.8943 -0.0875 -1.1828 0
M  V30 87 Ba -2.3069 0.8395 -0.1108 0
M  V30 88 Ba -1.8553 -5.2367 -1.7808 0
M  V30 89 Ga -2.1481 -4.0954 -2.6756 0
M  V30 90 Ba -2.4023 -2.9341 -3.5563 0
M  V30 91 Ba -3.8716 3.7103 6.2997 0
M  V30 92 Ga -3.0421 2.6302 6.8580 0
M  V30 93 Ba -2.0816 1.6142 7.3180 0
M  V30 94 Ba -4.4564 4.6154 3.9490 0
M  V30 95 Ga -4.4597 3.8470 2.6805 0
M  V30 96 Ba -4.5024 3.0911 1.4052 0
M  V30 97 Ba 2.0942 5.1147 -0.4009 0
M  V30 98 Ga 2.5504 3.9858 0.4340 0
M  V30 99 Ba 2.8835 2.8003 1.2485 0
M  V30 END ATOM
M  V30 BEGIN BOND
M  V30 1 1 1 2
M  V30 2 1 1 3
M  V30 3 1 1 4
M  V30 4 1 1 5
M  V30 5 1 6 7
M  V30 6 1 6 8
M  V30 7 1 6 9
M  V30 8 1 6 10
M  V30 9 1 11 12
M  V30 10 1 11 13
M  V30 11 1 11 14
M  V30 12 1 11 15
M  V30 13 1 16 17
M  V30 14 1 16 18
M  V30 15 1 16 19
M  V30 16 1 16 20
M  V30 17 1 21 22
M  V30 18 1 21 23
M  V30 19 1 21 24
M  V30 20 1 21 25
M  V30 21 1 26 27
M  V30 22 1 26 28
M  V30 23 1 26 29
M  V30 24 1 26 30
M  V30 25 1 31 32
M  V30 26 1 31 33
M  V30 27 1 31 34
M  V30 28 1 31 35
M  V30 29 1 36 37
M  V30 30 1 36 38
M  V30 31 1 36 39
M  V30 32 1 36 40
M  V30 33 1 41 42
M  V30 34 1 41 43
M  V30 35 1 41 44
M  V30 36 1 41 45
M  V30 37 1 46 47
M  V30 38 1 47 48
M  V30 39 1 49 50
M  V30 40 1 50 51
M  V30 41 1 52 53
M  V30 42 1 53 54
M  V30 43 1 55 56
M  V30 44 1 56 57
M  V30 45 1 58 59
M  V30 46 1 59 60
M  V30 47 1 61 62
M  V30 48 1 62 63
M  V30 49 1 64 65
M  V30 50 1 65 66
M  V30 51 1 67 68
M  V30 52 1 68 69
M  V30 53 1 70 71
M  V30 54 1 71 72
M  V30 55 1 73 74
M  V30 56 1 74 75
M  V30 57 1 76 77
M  V30 58 1 77 78
M  V30 59 1 79 80
M  V30 60 1 80 81
M  V30 61 1 82 83
M  V30 62 1 83 84
M  V30 63 1 85 86
M  V30 64 1 86 87
M  V30 65 1 88 89
M  V30 66 1 89 90
M  V30 67 1 91 92
M  V30 68 1 92 93
M  V30 69 1 94 95
M  V30 70 1 95 96
M  V30 71 1 97 98
M  V30 72 1 98 99
M  V30 73 1 2 88
M  V30 74 1 3 67
M  V30 75 1 4 73
M  V30 76 1 5 55
M  V30 77 1 7 79
M  V30 78 1 8 75
M  V30 79 1 9 69
M  V30 80 1 10 49
M  V30 81 1 12 82
M  V30 82 1 13 97
M  V30 83 1 14 46
M  V30 84 1 15 61
M  V30 85 1 17 91
M  V30 86 1 18 94
M  V30 87 1 19 70
M  V30 88 1 20 48
M  V30 89 1 22 85
M  V30 90 1 23 76
M  V30 91 1 24 63
M  V30 92 1 25 90
M  V30 93 1 27 81
M  V30 94 1 28 58
M  V30 95 1 29 51
M  V30 96 1 30 78
M  V30 97 1 32 87
M  V30 98 1 33 52
M  V30 99 1 34 84
M  V30 100 1 35 96
M  V30 101 1 37 64
M  V30 102 1 38 99
M  V30 103 1 39 57
M  V30 104 1 40 60
M  V30 105 1 42 72
M  V30 106 1 43 93
M  V30 107 1 44 54
M  V30 108 1 45 66
M  V30 END BOND
M  V30 END CTAB
M  END

$$$$
