
     RDKit          3D

  0  0  0  0  0  0  0  0  0  0999 V3000
M  V30 BEGIN CTAB
M  V30 COUNTS 99 108 0 0 0
M  V30 BEGIN ATOM
M  V30 1 Pd 4.3275 2.5865 1.1023 0
M  V30 2 Pb 3.6719 3.2932 1.3731 0
M  V30 3 Pb 4.2904 2.2279 2.0344 0
M  V30 4 Pb 4.3451 2.9275 0.1607 0
M  V30 5 Pb 5.0119 1.8984 0.8564 0
M  V30 6 Pd -0.1060 -5.5967 5.0693 0
M  V30 7 Pb -0.5162 -4.7936 4.6358 0
M  V30 8 Pb 0.1120 -5.0669 5.9005 0
M  V30 9 Pb -0.0093 -6.0152 4.1723 0
M  V30 10 Pb 0.3162 -6.4008 5.4792 0
M  V30 11 Pd -6.1233 1.1458 -1.1749 0
M  V30 12 Pb -6.0572 1.0773 -0.1862 0
M  V30 13 Pb -6.2338 0.1539 -1.2193 0
M  V30 14 Pb -6.2201 1.1977 -2.1719 0
M  V30 15 Pb -5.9695 2.1501 -1.0995 0
M  V30 16 Pd -3.1234 0.8139 -5.9594 0
M  V30 17 Pb -4.0728 0.8819 -5.6456 0
M  V30 18 Pb -2.1678 0.7769 -6.2632 0
M  V30 19 Pb -3.1004 -0.1635 -5.7490 0
M  V30 20 Pb -3.1458 1.7793 -6.2098 0
M  V30 21 Pd -2.4524 -2.4986 -1.5819 0
M  V30 22 Pb -2.3299 -2.4017 -0.5928 0
M  V30 23 Pb -3.4389 -2.6029 -1.4590 0
M  V30 24 Pb -2.5813 -2.6019 -2.5674 0
M  V30 25 Pb -1.4708 -2.3700 -1.7250 0
M  V30 26 Pd 0.5795 4.3452 -5.4572 0
M  V30 27 Pb 0.6905 3.4658 -5.9214 0
M  V30 28 Pb 0.3881 5.1713 -4.9345 0
M  V30 29 Pb 1.4569 4.2463 -4.9855 0
M  V30 30 Pb -0.3116 4.4457 -5.8936 0
M  V30 31 Pd -2.7289 5.5358 0.9752 0
M  V30 32 Pb -1.8451 5.6788 1.4175 0
M  V30 33 Pb -2.3844 6.0503 0.1930 0
M  V30 34 Pb -3.5799 5.2943 0.4713 0
M  V30 35 Pb -3.0500 5.0143 1.7574 0
M  V30 36 Pd 4.8922 -2.9497 0.8521 0
M  V30 37 Pb 4.2725 -2.6808 0.1158 0
M  V30 38 Pb 5.5112 -3.1947 1.6050 0
M  V30 39 Pb 4.3132 -3.7589 0.9740 0
M  V30 40 Pb 5.4490 -2.1345 0.6904 0
M  V30 41 Pd 4.6304 -3.3246 6.2225 0
M  V30 42 Pb 3.7369 -3.3673 6.7051 0
M  V30 43 Pb 4.4749 -2.3665 5.9840 0
M  V30 44 Pb 5.4286 -3.3516 5.6202 0
M  V30 45 Pb 4.8091 -4.2665 6.4936 0
M  V30 46 Ag -0.8177 -4.2058 4.2794 0
M  V30 47 Fe -1.5361 -3.2495 2.2263 0
M  V30 48 Ag -2.2412 -2.3336 0.1502 0
M  V30 49 Ag 3.1939 3.8205 1.6142 0
M  V30 50 Fe 1.0333 4.8054 1.6773 0
M  V30 51 Ag -1.1507 5.7389 1.6914 0
M  V30 52 Ag -0.7387 -2.2606 -1.8479 0
M  V30 53 Fe 1.5262 -2.3733 -1.1428 0
M  V30 54 Ag 3.7856 -2.4933 -0.4219 0
M  V30 55 Ag 0.7781 -6.8921 5.7858 0
M  V30 56 Fe 2.9979 -6.4947 6.4524 0
M  V30 57 Ag 4.7896 -4.9866 6.6688 0
M  V30 58 Ag -5.9439 1.1320 0.5431 0
M  V30 59 Fe -4.7267 2.6635 1.8534 0
M  V30 60 Ag -3.3524 4.5366 2.2338 0
M  V30 61 Ag 0.2676 -6.2146 3.5094 0
M  V30 62 Fe 2.0196 -5.3916 2.1342 0
M  V30 63 Ag 3.8207 -4.3274 1.0095 0
M  V30 64 Ag 4.3626 3.1587 -0.5543 0
M  V30 65 Fe 3.2398 3.6760 -2.5841 0
M  V30 66 Ag 2.1032 4.1901 -4.6070 0
M  V30 67 Ag 4.2390 1.9624 2.7333 0
M  V30 68 Fe 4.3117 0.1508 4.2665 0
M  V30 69 Ag 4.3780 -1.6408 5.8233 0
M  V30 70 Ag 0.1701 5.7355 -4.4980 0
M  V30 71 Fe -0.9432 6.2001 -2.4570 0
M  V30 72 Ag -2.0782 6.4107 -0.3860 0
M  V30 73 Ba -3.0746 -0.9020 -5.6198 0
M  V30 74 Ga -2.8811 -1.7821 -4.4525 0
M  V30 75 Ba -2.6902 -2.6868 -3.3038 0
M  V30 76 Ba -1.4489 0.7780 -6.4890 0
M  V30 77 Ga -0.3501 1.7616 -6.3843 0
M  V30 78 Ba 0.7044 2.7884 -6.2452 0
M  V30 79 Ba -5.8877 2.9117 -1.0383 0
M  V30 80 Ga -5.0005 3.9658 -0.4527 0
M  V30 81 Ba -4.2134 5.1265 0.0711 0
M  V30 82 Ba 0.3860 -4.6541 6.4798 0
M  V30 83 Ga 1.7201 -4.0383 6.7576 0
M  V30 84 Ba 3.0508 -3.4188 7.0440 0
M  V30 85 Ba -3.1338 2.4982 -6.4140 0
M  V30 86 Ga -2.0890 3.5293 -6.3216 0
M  V30 87 Ba -0.9943 4.5030 -6.1918 0
M  V30 88 Ba -6.3301 1.2081 -2.9167 0
M  V30 89 Ga -5.5285 1.0834 -4.1526 0
M  V30 90 Ba -4.7875 0.9659 -5.4265 0
M  V30 91 Ba 5.5462 1.4024 0.6755 0
M  V30 92 Ga 5.6881 -0.0658 0.6232 0
M  V30 93 Ba 5.8715 -1.5289 0.5573 0
M  V30 94 Ba 6.0073 -3.3258 2.1590 0
M  V30 95 Ga 5.9968 -3.3707 3.6378 0
M  V30 96 Ba 5.9817 -3.4171 5.1165 0
M  V30 97 Ba -6.2813 -0.5936 -1.2290 0
M  V30 98 Ga -5.2557 -1.6491 -1.3092 0
M  V30 99 Ba -4.1835 -2.6571 -1.3926 0
M  V30 END ATOM
M  V30 BEGIN BOND
M  V30 1 1 1 2
M  V30 2 1 1 3
M  V30 3 1 1 4
M  V30 4 1 1 5
M  V30 5 1 6 7
M  V30 6 1 6 8
M  V30 7 1 6 9
M  V30 8 1 6 10
M  V30 9 1 11 12
M  V30 10 1 11 13
M  V30 11 1 11 14
M  V30 12 1 11 15
M  V30 13 1 16 17
M  V30 14 1 16 18
M  V30 15 1 16 19
M  V30 16 1 16 20
M  V30 17 1 21 22
M  V30 18 1 21 23
M  V30 19 1 21 24
M  V30 20 1 21 25
M  V30 21 1 26 27
M  V30 22 1 26 28
M  V30 23 1 26 29
M  V30 24 1 26 30
M  V30 25 1 31 32
M  V30 26 1 31 33
M  V30 27 1 31 34
M  V30 28 1 31 35
M  V30 29 1 36 37
M  V30 30 1 36 38
M  V30 31 1 36 39
M  V30 32 1 36 40
M  V30 33 1 41 42
M  V30 34 1 41 43
M  V30 35 1 41 44
M  V30 36 1 41 45
M  V30 37 1 46 47
M  V30 38 1 47 48
M  V30 39 1 49 50
M  V30 40 1 50 51
M  V30 41 1 52 53
M  V30 42 1 53 54
M  V30 43 1 55 56
M  V30 44 1 56 57
M  V30 45 1 58 59
M  V30 46 1 59 60
M  V30 47 1 61 62
M  V30 48 1 62 63
M  V30 49 1 64 65
M  V30 50 1 65 66
M  V30 51 1 67 68
M  V30 52 1 68 69
M  V30 53 1 70 71
M  V30 54 1 71 72
M  V30 55 1 73 74
M  V30 56 1 74 75
M  V30 57 1 76 77
M  V30 58 1 77 78
M  V30 59 1 79 80
M  V30 60 1 80 81
M  V30 61 1 82 83
M  V30 62 1 83 84
M  V30 63 1 85 86
M  V30 64 1 86 87
M  V30 65 1 88 89
M  V30 66 1 89 90
M  V30 67 1 91 92
M  V30 68 1 92 93
M  V30 69 1 94 95
M  V30 70 1 95 96
M  V30 71 1 97 98
M  V30 72 1 98 99
M  V30 73 1 2 49
M  V30 74 1 3 67
M  V30 75 1 4 64
M  V30 76 1 5 91
M  V30 77 1 7 46
M  V30 78 1 8 82
M  V30 79 1 9 61
M  V30 80 1 10 55
M  V30 81 1 12 58
M  V30 82 1 13 97
M  V30 83 1 14 88
M  V30 84 1 15 79
M  V30 85 1 17 90
M  V30 86 1 18 76
M  V30 87 1 19 73
M  V30 88 1 20 85
M  V30 89 1 22 48
M  V30 90 1 23 99
M  V30 91 1 24 75
M  V30 92 1 25 52
M  V30 93 1 27 78
M  V30 94 1 28 70
M  V30 95 1 29 66
M  V30 96 1 30 87
M  V30 97 1 32 51
M  V30 98 1 33 72
M  V30 99 1 34 81
M  V30 100 1 35 60
M  V30 101 1 37 54
M  V30 102 1 38 94
M  V30 103 1 39 63
M  V30 104 1 40 93
M  V30 105 1 42 84
M  V30 106 1 43 69
M  V30 107 1 44 96
M  V30 108 1 45 57
M  V30 END BOND
M  V30 END CTAB
M  END

$$$$
