
     RDKit          3D

  0  0  0  0  0  0  0  0  0  0999 V3000
M  V30 BEGIN CTAB
M  V30 COUNTS 99 108 0 0 0
M  V30 BEGIN ATOM
M  V30 1 Pd -2.4252 0.0534 3.2202 0
M  V30 2 Pb -3.1881 -0.5285 3.5019 0
M  V30 3 Pb -1.8333 -0.7458 3.3344 0
M  V30 4 Pb -3.0250 0.8535 3.2007 0
M  V30 5 Pb -1.6908 0.6278 2.8495 0
M  V30 6 Pd 8.0156 -1.7444 2.2116 0
M  V30 7 Pb 7.9462 -1.6274 1.2247 0
M  V30 8 Pb 7.9578 -2.7335 2.1001 0
M  V30 9 Pb 8.0863 -0.7486 2.3177 0
M  V30 10 Pb 7.9498 -1.8871 3.2108 0
M  V30 11 Pd -2.6971 -3.6637 -3.8518 0
M  V30 12 Pb -3.0126 -3.9863 -2.9349 0
M  V30 13 Pb -1.7735 -3.4718 -3.5225 0
M  V30 14 Pb -2.4205 -3.2443 -4.7136 0
M  V30 15 Pb -3.6025 -3.8341 -4.2207 0
M  V30 16 Pd -1.7497 3.2521 -5.4394 0
M  V30 17 Pb -1.6131 2.4097 -5.9577 0
M  V30 18 Pb -2.7446 3.1524 -5.5074 0
M  V30 19 Pb -0.7623 3.3707 -5.3269 0
M  V30 20 Pb -1.9274 4.0565 -4.8751 0
M  V30 21 Pd 3.4598 1.2851 -3.2042 0
M  V30 22 Pb 4.2003 0.7034 -2.8705 0
M  V30 23 Pb 2.8820 0.4696 -3.2741 0
M  V30 24 Pb 2.8106 1.9055 -3.6542 0
M  V30 25 Pb 4.0314 2.0740 -2.9844 0
M  V30 26 Pd -6.9720 4.3057 -0.7687 0
M  V30 27 Pb -7.1083 4.0897 -1.7349 0
M  V30 28 Pb -7.6297 3.6157 -0.4681 0
M  V30 29 Pb -6.6897 4.3969 0.1816 0
M  V30 30 Pb -6.2458 4.9256 -1.0617 0
M  V30 31 Pd -6.4948 -2.7699 0.6001 0
M  V30 32 Pb -6.0713 -2.6033 1.4954 0
M  V30 33 Pb -7.2093 -2.1034 0.8071 0
M  V30 34 Pb -6.9741 -2.9694 -0.2454 0
M  V30 35 Pb -5.7226 -3.3574 0.2842 0
M  V30 36 Pd 4.7934 2.7038 1.6317 0
M  V30 37 Pb 5.0181 3.0594 0.7197 0
M  V30 38 Pb 4.5557 2.3789 2.5448 0
M  V30 39 Pb 5.7628 2.5433 1.8298 0
M  V30 40 Pb 3.8136 2.8104 1.4621 0
M  V30 41 Pd 4.0332 -3.4042 5.6886 0
M  V30 42 Pb 4.2771 -4.3261 5.3992 0
M  V30 43 Pb 3.0777 -3.5586 5.4414 0
M  V30 44 Pb 3.8330 -2.4471 5.8749 0
M  V30 45 Pb 5.0156 -3.1831 5.7817 0
M  V30 46 Ag 7.8073 -1.5447 0.4959 0
M  V30 47 Fe 6.3189 -0.6257 -1.1073 0
M  V30 48 Ag 4.8054 0.3041 -2.6806 0
M  V30 49 Ag -3.4962 3.1301 -5.4900 0
M  V30 50 Fe -5.3915 3.4784 -4.0991 0
M  V30 51 Ag -7.0582 3.8998 -2.4586 0
M  V30 52 Ag -4.3218 -3.9117 -4.3669 0
M  V30 53 Fe -6.1859 -3.6274 -2.9623 0
M  V30 54 Ag -7.2356 -3.1426 -0.9145 0
M  V30 55 Ag 7.8225 -3.4639 2.1307 0
M  V30 56 Fe 6.3057 -4.7120 3.4344 0
M  V30 57 Ag 4.5948 -4.8940 5.0445 0
M  V30 58 Ag -2.1520 4.6083 -4.4224 0
M  V30 59 Fe -3.8452 5.1283 -2.8436 0
M  V30 60 Ag -5.6645 5.3126 -1.3315 0
M  V30 61 Ag -2.2069 -2.8373 -5.3027 0
M  V30 62 Fe -1.8310 -0.5875 -5.9532 0
M  V30 63 Ag -1.5490 1.7432 -6.2916 0
M  V30 64 Ag -3.4644 1.4614 3.2148 0
M  V30 65 Fe -4.9465 2.9625 2.1280 0
M  V30 66 Ag -6.4056 4.3466 0.8692 0
M  V30 67 Ag -1.2014 1.0941 2.5165 0
M  V30 68 Fe 0.9464 1.9523 1.9663 0
M  V30 69 Ag 3.0684 2.8524 1.3838 0
M  V30 70 Ag 4.3498 2.1304 3.2195 0
M  V30 71 Fe 4.0078 0.2781 4.6593 0
M  V30 72 Ag 3.7416 -1.7092 5.9241 0
M  V30 73 Ag -1.4506 -1.3722 3.4955 0
M  V30 74 Fe 0.4593 -2.5093 4.3343 0
M  V30 75 Ag 2.3816 -3.6260 5.1721 0
M  V30 76 Ag -8.0478 3.0580 -0.1927 0
M  V30 77 Fe -8.0175 0.7566 0.3892 0
M  V30 78 Ag -7.7077 -1.5478 0.8682 0
M  V30 79 Ag -1.0629 -3.3069 -3.3496 0
M  V30 80 Fe 0.6879 -1.7005 -3.2970 0
M  V30 81 Ag 2.5150 -0.1838 -3.2036 0
M  V30 82 Ba -3.7499 -0.9917 3.6827 0
M  V30 83 Ga -4.7748 -1.7313 2.9158 0
M  V30 84 Ba -5.8182 -2.4933 2.1976 0
M  V30 85 Ba 4.4593 2.6367 -2.7363 0
M  V30 86 Ga 4.8355 3.0099 -1.3569 0
M  V30 87 Ba 5.1834 3.3422 0.0403 0
M  V30 88 Ba -0.0292 3.5044 -5.2362 0
M  V30 89 Ga 1.1614 2.8952 -4.6054 0
M  V30 90 Ba 2.4511 2.4454 -4.0403 0
M  V30 91 Ba 7.8739 -2.0305 3.9554 0
M  V30 92 Ga 6.7974 -2.5080 4.8700 0
M  V30 93 Ba 5.7498 -2.9830 5.8189 0
M  V30 94 Ba -3.2377 -4.2361 -2.2402 0
M  V30 95 Ga -4.2199 -3.9602 -1.1394 0
M  V30 96 Ba -5.1426 -3.7985 0.0334 0
M  V30 97 Ba 8.1626 -0.0005 2.3729 0
M  V30 98 Ga 7.3095 1.1935 2.1854 0
M  V30 99 Ba 6.4815 2.4063 2.0057 0
M  V30 END ATOM
M  V30 BEGIN BOND
M  V30 1 1 1 2
M  V30 2 1 1 3
M  V30 3 1 1 4
M  V30 4 1 1 5
M  V30 5 1 6 7
M  V30 6 1 6 8
M  V30 7 1 6 9
M  V30 8 1 6 10
M  V30 9 1 11 12
M  V30 10 1 11 13
M  V30 11 1 11 14
M  V30 12 1 11 15
M  V30 13 1 16 17
M  V30 14 1 16 18
M  V30 15 1 16 19
M  V30 16 1 16 20
M  V30 17 1 21 22
M  V30 18 1 21 23
M  V30 19 1 21 24
M  V30 20 1 21 25
M  V30 21 1 26 27
M  V30 22 1 26 28
M  V30 23 1 26 29
M  V30 24 1 26 30
M  V30 25 1 31 32
M  V30 26 1 31 33
M  V30 27 1 31 34
M  V30 28 1 31 35
M  V30 29 1 36 37
M  V30 30 1 36 38
M  V30 31 1 36 39
M  V30 32 1 36 40
M  V30 33 1 41 42
M  V30 34 1 41 43
M  V30 35 1 41 44
M  V30 36 1 41 45
M  V30 37 1 46 47
M  V30 38 1 47 48
M  V30 39 1 49 50
M  V30 40 1 50 51
M  V30 41 1 52 53
M  V30 42 1 53 54
M  V30 43 1 55 56
M  V30 44 1 56 57
M  V30 45 1 58 59
M  V30 46 1 59 60
M  V30 47 1 61 62
M  V30 48 1 62 63
M  V30 49 1 64 65
M  V30 50 1 65 66
M  V30 51 1 67 68
M  V30 52 1 68 69
M  V30 53 1 70 71
M  V30 54 1 71 72
M  V30 55 1 73 74
M  V30 56 1 74 75
M  V30 57 1 76 77
M  V30 58 1 77 78
M  V30 59 1 79 80
M  V30 60 1 80 81
M  V30 61 1 82 83
M  V30 62 1 83 84
M  V30 63 1 85 86
M  V30 64 1 86 87
M  V30 65 1 88 89
M  V30 66 1 89 90
M  V30 67 1 91 92
M  V30 68 1 92 93
M  V30 69 1 94 95
M  V30 70 1 95 96
M  V30 71 1 97 98
M  V30 72 1 98 99
M  V30 73 1 2 82
M  V30 74 1 3 73
M  V30 75 1 4 64
M  V30 76 1 5 67
M  V30 77 1 7 46
M  V30 78 1 8 55
M  V30 79 1 9 97
M  V30 80 1 10 91
M  V30 81 1 12 94
M  V30 82 1 13 79
M  V30 83 1 14 61
M  V30 84 1 15 52
M  V30 85 1 17 63
M  V30 86 1 18 49
M  V30 87 1 19 88
M  V30 88 1 20 58
M  V30 89 1 22 48
M  V30 90 1 23 81
M  V30 91 1 24 90
M  V30 92 1 25 85
M  V30 93 1 27 51
M  V30 94 1 28 76
M  V30 95 1 29 66
M  V30 96 1 30 60
M  V30 97 1 32 84
M  V30 98 1 33 78
M  V30 99 1 34 54
M  V30 100 1 35 96
M  V30 101 1 37 87
M  V30 102 1 38 70
M  V30 103 1 39 99
M  V30 104 1 40 69
M  V30 105 1 42 57
M  V30 106 1 43 75
M  V30 107 1 44 72
M  V30 108 1 45 93
M  V30 END BOND
M  V30 END CTAB
M  END

$$$$
