
     RDKit          3D

  0  0  0  0  0  0  0  0  0  0999 V3000
M  V30 BEGIN CTAB
M  V30 COUNTS 99 108 0 0 0
M  V30 BEGIN ATOM
M  V30 1 Pd 2.6682 3.1022 -3.2652 0
M  V30 2 Pb 3.2349 2.2926 -3.0995 0
M  V30 3 Pb 2.7873 2.9172 -4.2478 0
M  V30 4 Pb 2.6883 3.4277 -2.3156 0
M  V30 5 Pb 2.0150 3.8521 -3.3991 0
M  V30 6 Pd -2.8580 -1.8705 -4.4044 0
M  V30 7 Pb -3.0234 -2.1914 -3.4746 0
M  V30 8 Pb -2.6832 -1.5914 -5.3619 0
M  V30 9 Pb -3.5422 -1.1480 -4.2674 0
M  V30 10 Pb -2.1416 -2.5547 -4.5148 0
M  V30 11 Pd -0.5899 -4.5187 4.6210 0
M  V30 12 Pb -0.7511 -4.9336 3.7341 0
M  V30 13 Pb -1.5743 -4.5432 4.7942 0
M  V30 14 Pb -0.4595 -4.1395 5.5411 0
M  V30 15 Pb 0.4079 -4.4743 4.4034 0
M  V30 16 Pd -0.8102 0.3344 7.2150 0
M  V30 17 Pb -0.7586 -0.6175 7.5192 0
M  V30 18 Pb 0.1840 0.3905 7.2345 0
M  V30 19 Pb -1.8079 0.3171 7.1713 0
M  V30 20 Pb -0.8086 1.2599 6.8330 0
M  V30 21 Pd -4.1721 -1.0241 3.3429 0
M  V30 22 Pb -4.0352 -1.5094 2.4819 0
M  V30 23 Pb -4.3075 -1.9038 3.7976 0
M  V30 24 Pb -4.3096 -0.5756 4.2248 0
M  V30 25 Pb -3.9862 -0.1453 2.8962 0
M  V30 26 Pd 3.6849 3.4977 2.7080 0
M  V30 27 Pb 3.8465 3.0491 3.5827 0
M  V30 28 Pb 4.4629 2.9858 2.3596 0
M  V30 29 Pb 3.4629 3.9024 1.8204 0
M  V30 30 Pb 2.8573 3.8886 3.1106 0
M  V30 31 Pd 3.8351 -3.3327 0.6657 0
M  V30 32 Pb 4.0738 -2.9119 -0.2091 0
M  V30 33 Pb 4.4962 -2.6907 1.0439 0
M  V30 34 Pb 3.5434 -3.6714 1.5850 0
M  V30 35 Pb 3.1785 -3.9404 0.2362 0
M  V30 36 Pd -2.7601 3.4218 -2.9784 0
M  V30 37 Pb -2.8247 3.2933 -1.9858 0
M  V30 38 Pb -2.7077 3.5780 -3.9587 0
M  V30 39 Pb -3.4815 2.7388 -3.1231 0
M  V30 40 Pb -1.9977 4.0730 -2.9095 0
M  V30 41 Pd 1.0355 0.4153 -7.9400 0
M  V30 42 Pb 0.1591 -0.0811 -7.9979 0
M  V30 43 Pb 1.8428 0.9593 -7.7217 0
M  V30 44 Pb 0.5196 1.2500 -8.0895 0
M  V30 45 Pb 1.4935 -0.4418 -7.7214 0
M  V30 46 Ag -3.1472 -2.4556 -2.7864 0
M  V30 47 Fe -3.5400 -2.1371 -0.4685 0
M  V30 48 Ag -3.9364 -1.9123 1.8596 0
M  V30 49 Ag 3.6035 1.6392 -3.0410 0
M  V30 50 Fe 3.9649 -0.4426 -1.9523 0
M  V30 51 Ag 4.2730 -2.5010 -0.8045 0
M  V30 52 Ag -3.8178 0.5135 2.5722 0
M  V30 53 Fe -3.3623 1.8406 0.6515 0
M  V30 54 Ag -2.9011 3.2044 -1.2419 0
M  V30 55 Ag 0.9195 0.5023 7.1868 0
M  V30 56 Fe 2.5482 1.5415 5.8161 0
M  V30 57 Ag 3.8896 2.6762 4.2270 0
M  V30 58 Ag -1.5326 -2.9493 -4.6771 0
M  V30 59 Fe 0.3453 -2.4515 -6.0166 0
M  V30 60 Ag 1.6531 -1.1162 -7.4563 0
M  V30 61 Ag -0.7679 -5.2092 3.0483 0
M  V30 62 Fe 0.6954 -5.0620 1.2104 0
M  V30 63 Ag 2.6143 -4.3725 0.0350 0
M  V30 64 Ag -0.7320 1.9267 6.4954 0
M  V30 65 Fe 0.6529 3.1388 4.9926 0
M  V30 66 Ag 2.2277 4.0693 3.4763 0
M  V30 67 Ag -2.5967 3.6950 -4.6845 0
M  V30 68 Fe -1.3503 2.9273 -6.5414 0
M  V30 69 Ag 0.0620 1.8332 -8.0897 0
M  V30 70 Ag 4.9841 2.4783 2.2008 0
M  V30 71 Fe 5.1576 0.1694 1.6982 0
M  V30 72 Ag 4.9751 -2.1411 1.2055 0
M  V30 73 Ba -2.5535 0.3482 7.1088 0
M  V30 74 Ga -3.4948 0.0359 6.0189 0
M  V30 75 Ba -4.4084 -0.2868 4.9088 0
M  V30 76 Ba 1.1665 -4.4691 4.2620 0
M  V30 77 Ga 2.1969 -4.1650 3.2141 0
M  V30 78 Ba 3.3547 -3.9140 2.2928 0
M  V30 79 Ba -2.5592 -1.4541 -6.1017 0
M  V30 80 Ga -1.5140 -0.9189 -7.0177 0
M  V30 81 Ba -0.5292 -0.4020 -8.0082 0
M  V30 82 Ba -0.4166 -3.8921 6.2519 0
M  V30 83 Ga -0.5421 -2.6074 6.9727 0
M  V30 84 Ba -0.6621 -1.3355 7.7171 0
M  V30 85 Ba -4.0531 -0.6110 -4.1265 0
M  V30 86 Ga -4.0221 0.8065 -3.6989 0
M  V30 87 Ba -4.0126 2.2245 -3.2716 0
M  V30 88 Ba 2.6993 3.8457 -1.6869 0
M  V30 89 Ga 3.0037 3.9275 -0.2428 0
M  V30 90 Ba 3.2377 4.2323 1.1851 0
M  V30 91 Ba 1.5060 4.4090 -3.3864 0
M  V30 92 Ga 0.0396 4.4799 -3.1785 0
M  V30 93 Ba -1.4259 4.5636 -2.9699 0
M  V30 94 Ba 3.0067 2.8121 -4.9654 0
M  V30 95 Ga 2.6734 2.0954 -6.2163 0
M  V30 96 Ba 2.3967 1.4113 -7.4993 0
M  V30 97 Ba -2.3166 -4.5400 4.9001 0
M  V30 98 Ga -3.3690 -3.5729 4.5379 0
M  V30 99 Ba -4.3705 -2.5640 4.1468 0
M  V30 END ATOM
M  V30 BEGIN BOND
M  V30 1 1 1 2
M  V30 2 1 1 3
M  V30 3 1 1 4
M  V30 4 1 1 5
M  V30 5 1 6 7
M  V30 6 1 6 8
M  V30 7 1 6 9
M  V30 8 1 6 10
M  V30 9 1 11 12
M  V30 10 1 11 13
M  V30 11 1 11 14
M  V30 12 1 11 15
M  V30 13 1 16 17
M  V30 14 1 16 18
M  V30 15 1 16 19
M  V30 16 1 16 20
M  V30 17 1 21 22
M  V30 18 1 21 23
M  V30 19 1 21 24
M  V30 20 1 21 25
M  V30 21 1 26 27
M  V30 22 1 26 28
M  V30 23 1 26 29
M  V30 24 1 26 30
M  V30 25 1 31 32
M  V30 26 1 31 33
M  V30 27 1 31 34
M  V30 28 1 31 35
M  V30 29 1 36 37
M  V30 30 1 36 38
M  V30 31 1 36 39
M  V30 32 1 36 40
M  V30 33 1 41 42
M  V30 34 1 41 43
M  V30 35 1 41 44
M  V30 36 1 41 45
M  V30 37 1 46 47
M  V30 38 1 47 48
M  V30 39 1 49 50
M  V30 40 1 50 51
M  V30 41 1 52 53
M  V30 42 1 53 54
M  V30 43 1 55 56
M  V30 44 1 56 57
M  V30 45 1 58 59
M  V30 46 1 59 60
M  V30 47 1 61 62
M  V30 48 1 62 63
M  V30 49 1 64 65
M  V30 50 1 65 66
M  V30 51 1 67 68
M  V30 52 1 68 69
M  V30 53 1 70 71
M  V30 54 1 71 72
M  V30 55 1 73 74
M  V30 56 1 74 75
M  V30 57 1 76 77
M  V30 58 1 77 78
M  V30 59 1 79 80
M  V30 60 1 80 81
M  V30 61 1 82 83
M  V30 62 1 83 84
M  V30 63 1 85 86
M  V30 64 1 86 87
M  V30 65 1 88 89
M  V30 66 1 89 90
M  V30 67 1 91 92
M  V30 68 1 92 93
M  V30 69 1 94 95
M  V30 70 1 95 96
M  V30 71 1 97 98
M  V30 72 1 98 99
M  V30 73 1 2 49
M  V30 74 1 3 94
M  V30 75 1 4 88
M  V30 76 1 5 91
M  V30 77 1 7 46
M  V30 78 1 8 79
M  V30 79 1 9 85
M  V30 80 1 10 58
M  V30 81 1 12 61
M  V30 82 1 13 97
M  V30 83 1 14 82
M  V30 84 1 15 76
M  V30 85 1 17 84
M  V30 86 1 18 55
M  V30 87 1 19 73
M  V30 88 1 20 64
M  V30 89 1 22 48
M  V30 90 1 23 99
M  V30 91 1 24 75
M  V30 92 1 25 52
M  V30 93 1 27 57
M  V30 94 1 28 70
M  V30 95 1 29 90
M  V30 96 1 30 66
M  V30 97 1 32 51
M  V30 98 1 33 72
M  V30 99 1 34 78
M  V30 100 1 35 63
M  V30 101 1 37 54
M  V30 102 1 38 67
M  V30 103 1 39 87
M  V30 104 1 40 93
M  V30 105 1 42 81
M  V30 106 1 43 96
M  V30 107 1 44 69
M  V30 108 1 45 60
M  V30 END BOND
M  V30 END CTAB
M  END

$$$$
