
     RDKit          3D

  0  0  0  0  0  0  0  0  0  0999 V3000
M  V30 BEGIN CTAB
M  V30 COUNTS 99 108 0 0 0
M  V30 BEGIN ATOM
M  V30 1 Pd -1.9409 2.0671 3.0524 0
M  V30 2 Pb -1.2733 2.7573 3.3172 0
M  V30 3 Pb -2.7231 1.5231 2.7096 0
M  V30 4 Pb -1.4541 1.9582 2.1710 0
M  V30 5 Pb -2.4966 2.3430 3.8317 0
M  V30 6 Pd -6.2873 3.1875 -0.1628 0
M  V30 7 Pb -6.0090 2.3864 0.3903 0
M  V30 8 Pb -6.2997 2.6166 -0.9835 0
M  V30 9 Pb -6.3820 3.7030 0.6849 0
M  V30 10 Pb -6.3568 4.0150 -0.7238 0
M  V30 11 Pd -2.2770 4.5899 -1.8444 0
M  V30 12 Pb -1.6466 3.9022 -1.4501 0
M  V30 13 Pb -2.5198 3.9589 -2.5804 0
M  V30 14 Pb -3.0416 5.1833 -2.1032 0
M  V30 15 Pb -1.9348 5.2445 -1.1754 0
M  V30 16 Pd 4.2274 -1.2751 -4.5052 0
M  V30 17 Pb 3.8973 -0.4154 -4.9261 0
M  V30 18 Pb 4.5356 -2.1320 -4.0948 0
M  V30 19 Pb 3.5934 -1.1822 -3.7392 0
M  V30 20 Pb 4.7463 -1.4446 -5.3396 0
M  V30 21 Pd -3.2274 -0.7089 -2.4298 0
M  V30 22 Pb -2.2680 -0.9447 -2.2704 0
M  V30 23 Pb -3.2374 -0.3591 -1.4943 0
M  V30 24 Pb -4.1493 -0.3647 -2.5952 0
M  V30 25 Pb -3.2202 -1.0635 -3.3661 0
M  V30 26 Pd 4.9833 -1.7137 7.2418 0
M  V30 27 Pb 4.9523 -2.6967 7.3669 0
M  V30 28 Pb 5.8111 -1.8564 6.6919 0
M  V30 29 Pb 4.0295 -1.6797 7.5602 0
M  V30 30 Pb 4.9410 -0.7283 7.0965 0
M  V30 31 Pd -0.1275 -1.0888 4.7362 0
M  V30 32 Pb -0.2063 -2.0186 4.3582 0
M  V30 33 Pb -0.7116 -0.7368 4.0035 0
M  V30 34 Pb 0.0918 -0.1575 5.0170 0
M  V30 35 Pb 0.3955 -1.3945 5.5500 0
M  V30 36 Pd 4.4732 -5.7300 1.9047 0
M  V30 37 Pb 5.3840 -5.3834 2.1477 0
M  V30 38 Pb 4.6058 -5.5060 0.9383 0
M  V30 39 Pb 4.3882 -6.0135 2.8515 0
M  V30 40 Pb 3.4813 -5.8351 1.8176 0
M  V30 41 Pd 0.3331 0.5356 -8.0044 0
M  V30 42 Pb -0.4129 -0.0755 -8.2430 0
M  V30 43 Pb 1.1014 1.0124 -7.5636 0
M  V30 44 Pb -0.3258 0.9371 -7.3647 0
M  V30 45 Pb 0.9929 0.1077 -8.6186 0
M  V30 46 Ag 6.3177 -2.0988 6.1859 0
M  V30 47 Fe 6.3636 -3.5321 4.2815 0
M  V30 48 Ag 5.9674 -5.0155 2.4578 0
M  V30 49 Ag -3.2023 -0.1124 -0.7881 0
M  V30 50 Fe -2.1860 -0.2910 1.3511 0
M  V30 51 Ag -1.1870 -0.4455 3.5003 0
M  V30 52 Ag -3.2323 -1.2921 -4.0816 0
M  V30 53 Fe -2.2709 -1.0700 -6.2391 0
M  V30 54 Ag -0.9969 -0.5286 -8.1641 0
M  V30 55 Ag -3.0324 2.6801 4.2156 0
M  V30 56 Fe -4.9816 3.5682 3.2339 0
M  V30 57 Ag -6.3958 3.9503 1.3863 0
M  V30 58 Ag 4.9248 -1.5314 -6.0553 0
M  V30 59 Fe 3.5631 -1.0213 -7.9137 0
M  V30 60 Ag 1.5949 -0.2027 -8.9269 0
M  V30 61 Ag 4.7301 -2.7713 -3.7567 0
M  V30 62 Fe 4.7367 -4.0659 -1.7655 0
M  V30 63 Ag 4.7539 -5.3801 0.2128 0
M  V30 64 Ag -0.9060 3.4000 3.3239 0
M  V30 65 Fe -0.9515 4.9480 1.5486 0
M  V30 66 Ag -1.5951 5.6066 -0.6216 0
M  V30 67 Ag -0.2011 -2.6863 4.0008 0
M  V30 68 Fe 1.1482 -4.3209 2.9127 0
M  V30 69 Ag 2.7345 -5.7835 1.9029 0
M  V30 70 Ag 3.0744 -1.1947 -3.1988 0
M  V30 71 Fe 0.7664 -1.1103 -2.6434 0
M  V30 72 Ag -1.5431 -1.0306 -2.0931 0
M  V30 73 Ag 4.6997 -0.0351 6.9758 0
M  V30 74 Fe 2.6186 0.7024 6.1358 0
M  V30 75 Ag 0.4511 0.4585 5.2287 0
M  V30 76 Ag 4.8791 -3.4322 7.3412 0
M  V30 77 Fe 4.6071 -5.0475 5.6427 0
M  V30 78 Ag 4.3797 -6.1651 3.5766 0
M  V30 79 Ag -2.6512 3.5090 -3.1654 0
M  V30 80 Fe -1.7430 2.3463 -5.0285 0
M  V30 81 Ag -0.8701 1.1731 -6.9017 0
M  V30 82 Ba -6.2825 4.6272 -1.1556 0
M  V30 83 Ga -5.0316 5.1623 -1.7381 0
M  V30 84 Ba -3.6897 5.5437 -2.2321 0
M  V30 85 Ba 3.6874 0.2402 -5.2540 0
M  V30 86 Ga 2.6759 0.7536 -6.2176 0
M  V30 87 Ba 1.6810 1.3077 -7.1762 0
M  V30 88 Ba -3.3473 1.1618 2.4591 0
M  V30 89 Ga -4.5373 1.4969 1.6217 0
M  V30 90 Ba -5.7415 1.7937 0.7904 0
M  V30 91 Ba -1.0910 1.9366 1.4995 0
M  V30 92 Ga -1.1710 2.6595 0.1949 0
M  V30 93 Ba -1.2195 3.3599 -1.1233 0
M  V30 94 Ba 3.2896 -1.7254 7.7181 0
M  V30 95 Ga 2.0279 -1.6233 6.9315 0
M  V30 96 Ba 0.7173 -1.5463 6.2270 0
M  V30 97 Ba -6.3663 2.1570 -1.5726 0
M  V30 98 Ga -5.5883 1.0501 -2.1574 0
M  V30 99 Ba -4.8139 -0.0566 -2.7472 0
M  V30 END ATOM
M  V30 BEGIN BOND
M  V30 1 1 1 2
M  V30 2 1 1 3
M  V30 3 1 1 4
M  V30 4 1 1 5
M  V30 5 1 6 7
M  V30 6 1 6 8
M  V30 7 1 6 9
M  V30 8 1 6 10
M  V30 9 1 11 12
M  V30 10 1 11 13
M  V30 11 1 11 14
M  V30 12 1 11 15
M  V30 13 1 16 17
M  V30 14 1 16 18
M  V30 15 1 16 19
M  V30 16 1 16 20
M  V30 17 1 21 22
M  V30 18 1 21 23
M  V30 19 1 21 24
M  V30 20 1 21 25
M  V30 21 1 26 27
M  V30 22 1 26 28
M  V30 23 1 26 29
M  V30 24 1 26 30
M  V30 25 1 31 32
M  V30 26 1 31 33
M  V30 27 1 31 34
M  V30 28 1 31 35
M  V30 29 1 36 37
M  V30 30 1 36 38
M  V30 31 1 36 39
M  V30 32 1 36 40
M  V30 33 1 41 42
M  V30 34 1 41 43
M  V30 35 1 41 44
M  V30 36 1 41 45
M  V30 37 1 46 47
M  V30 38 1 47 48
M  V30 39 1 49 50
M  V30 40 1 50 51
M  V30 41 1 52 53
M  V30 42 1 53 54
M  V30 43 1 55 56
M  V30 44 1 56 57
M  V30 45 1 58 59
M  V30 46 1 59 60
M  V30 47 1 61 62
M  V30 48 1 62 63
M  V30 49 1 64 65
M  V30 50 1 65 66
M  V30 51 1 67 68
M  V30 52 1 68 69
M  V30 53 1 70 71
M  V30 54 1 71 72
M  V30 55 1 73 74
M  V30 56 1 74 75
M  V30 57 1 76 77
M  V30 58 1 77 78
M  V30 59 1 79 80
M  V30 60 1 80 81
M  V30 61 1 82 83
M  V30 62 1 83 84
M  V30 63 1 85 86
M  V30 64 1 86 87
M  V30 65 1 88 89
M  V30 66 1 89 90
M  V30 67 1 91 92
M  V30 68 1 92 93
M  V30 69 1 94 95
M  V30 70 1 95 96
M  V30 71 1 97 98
M  V30 72 1 98 99
M  V30 73 1 2 64
M  V30 74 1 3 88
M  V30 75 1 4 91
M  V30 76 1 5 55
M  V30 77 1 7 90
M  V30 78 1 8 97
M  V30 79 1 9 57
M  V30 80 1 10 82
M  V30 81 1 12 93
M  V30 82 1 13 79
M  V30 83 1 14 84
M  V30 84 1 15 66
M  V30 85 1 17 85
M  V30 86 1 18 61
M  V30 87 1 19 70
M  V30 88 1 20 58
M  V30 89 1 22 72
M  V30 90 1 23 49
M  V30 91 1 24 99
M  V30 92 1 25 52
M  V30 93 1 27 76
M  V30 94 1 28 46
M  V30 95 1 29 94
M  V30 96 1 30 73
M  V30 97 1 32 67
M  V30 98 1 33 51
M  V30 99 1 34 75
M  V30 100 1 35 96
M  V30 101 1 37 48
M  V30 102 1 38 63
M  V30 103 1 39 78
M  V30 104 1 40 69
M  V30 105 1 42 54
M  V30 106 1 43 87
M  V30 107 1 44 81
M  V30 108 1 45 60
M  V30 END BOND
M  V30 END CTAB
M  END

$$$$
