
     RDKit          3D

  0  0  0  0  0  0  0  0  0  0999 V3000
M  V30 BEGIN CTAB
M  V30 COUNTS 99 108 0 0 0
M  V30 BEGIN ATOM
M  V30 1 Pd 0.6072 0.8194 0.0373 0
M  V30 2 Pb -0.0852 0.6172 -0.6484 0
M  V30 3 Pb 0.9553 1.5646 -0.5324 0
M  V30 4 Pb 0.2122 0.1308 0.6461 0
M  V30 5 Pb 1.3556 0.9606 0.6779 0
M  V30 6 Pd -2.7034 1.9054 3.5423 0
M  V30 7 Pb -2.3753 0.9732 3.3897 0
M  V30 8 Pb -2.9941 2.8593 3.6203 0
M  V30 9 Pb -3.6512 1.5863 3.4919 0
M  V30 10 Pb -1.7547 2.2183 3.5715 0
M  V30 11 Pd -8.2040 3.6183 3.3471 0
M  V30 12 Pb -8.8660 4.3632 3.3861 0
M  V30 13 Pb -8.5053 3.4690 2.3977 0
M  V30 14 Pb -7.5792 2.8352 3.3264 0
M  V30 15 Pb -7.7779 4.0149 4.1614 0
M  V30 16 Pd 4.8523 -9.0262 -3.2769 0
M  V30 17 Pb 4.0001 -8.8934 -2.7669 0
M  V30 18 Pb 4.5386 -8.4039 -3.9922 0
M  V30 19 Pb 5.2188 -9.5222 -2.4903 0
M  V30 20 Pb 5.7923 -8.9722 -3.6245 0
M  V30 21 Pd 5.4412 -1.2746 -0.2901 0
M  V30 22 Pb 4.9428 -0.6691 0.3316 0
M  V30 23 Pb 6.0288 -1.8514 -0.8572 0
M  V30 24 Pb 5.5543 -0.5413 -0.9616 0
M  V30 25 Pb 5.0267 -2.0773 0.1406 0
M  V30 26 Pd -7.9087 7.4144 0.5165 0
M  V30 27 Pb -7.0997 7.4434 -0.0689 0
M  V30 28 Pb -8.2572 6.5791 0.0748 0
M  V30 29 Pb -7.4814 8.0285 1.1820 0
M  V30 30 Pb -8.6920 7.3659 1.1279 0
M  V30 31 Pd 7.6178 -6.4874 -0.6147 0
M  V30 32 Pb 7.7091 -5.5714 -1.0045 0
M  V30 33 Pb 6.9419 -6.1763 0.0563 0
M  V30 34 Pb 7.4553 -7.4267 -0.3092 0
M  V30 35 Pb 8.0835 -6.8784 -1.4135 0
M  V30 36 Pd 1.0901 -2.5057 -4.0504 0
M  V30 37 Pb 0.3943 -1.8935 -3.6726 0
M  V30 38 Pb 0.9233 -3.1845 -3.3343 0
M  V30 39 Pb 1.7046 -3.1580 -4.4942 0
M  V30 40 Pb 1.5359 -1.7346 -4.5069 0
M  V30 41 Pd -0.7734 5.4755 0.6878 0
M  V30 42 Pb -1.3716 5.9387 0.0371 0
M  V30 43 Pb -0.1244 5.2259 -0.0304 0
M  V30 44 Pb -1.4499 5.6424 1.4072 0
M  V30 45 Pb -0.2236 4.9755 1.3535 0
M  V30 46 Ag 4.3344 -7.8668 -4.4725 0
M  V30 47 Fe 3.2318 -5.7779 -4.7158 0
M  V30 48 Ag 2.1046 -3.6915 -4.8382 0
M  V30 49 Ag 4.5472 -2.6444 0.2600 0
M  V30 50 Fe 2.6758 -3.3979 -1.0007 0
M  V30 51 Ag 1.0259 -3.5823 -2.7044 0
M  V30 52 Ag -6.4689 7.4579 -0.4723 0
M  V30 53 Fe -4.1624 6.9034 -0.5379 0
M  V30 54 Ag -1.8808 6.2659 -0.4024 0
M  V30 55 Ag 3.5557 -8.6298 -2.2276 0
M  V30 56 Fe 4.3833 -7.2224 -0.5200 0
M  V30 57 Ag 6.2697 -6.1180 0.3762 0
M  V30 58 Ag 5.4403 -0.1320 -1.5821 0
M  V30 59 Fe 3.8324 -0.3592 -3.3205 0
M  V30 60 Ag 2.0120 -1.1641 -4.6233 0
M  V30 61 Ag -7.4547 4.5574 4.5617 0
M  V30 62 Fe -7.0541 6.7105 3.6623 0
M  V30 63 Ag -7.1891 8.2201 1.8433 0
M  V30 64 Ba -9.3546 4.9281 3.3817 0
M  V30 65 Ga -9.3790 6.1312 2.5422 0
M  V30 66 Ba -9.2391 7.2654 1.6223 0
M  V30 67 Ba 1.1798 2.1630 -0.9256 0
M  V30 68 Ga 0.8081 3.5838 -0.7871 0
M  V30 69 Ba 0.3555 4.9666 -0.5447 0
M  V30 70 Ba -0.1161 -0.3403 1.1294 0
M  V30 71 Ga -1.1050 -0.0811 2.1931 0
M  V30 72 Ba -2.0898 0.2998 3.2235 0
M  V30 73 Ba -1.0494 2.4711 3.5634 0
M  V30 74 Ga -0.4031 3.5115 2.7462 0
M  V30 75 Ba 0.1298 4.5702 1.8727 0
M  V30 76 Ba -8.6940 3.5034 1.6621 0
M  V30 77 Ga -8.6219 4.6590 0.7213 0
M  V30 78 Ba -8.5025 5.8862 -0.1185 0
M  V30 79 Ba -3.1520 3.5930 3.6306 0
M  V30 80 Ga -2.5929 4.6912 2.8171 0
M  V30 81 Ba -1.9666 5.7084 1.9490 0
M  V30 82 Ba 6.5242 -8.8522 -3.7678 0
M  V30 83 Ga 7.4838 -8.0552 -2.9627 0
M  V30 84 Ba 8.3062 -7.2257 -2.0464 0
M  V30 85 Ba 6.5235 -2.2358 -1.2696 0
M  V30 86 Ga 7.1210 -3.5843 -1.2865 0
M  V30 87 Ba 7.7581 -4.9127 -1.3595 0
M  V30 88 Ba 5.5414 -9.7904 -1.8691 0
M  V30 89 Ga 6.4265 -9.0464 -0.9526 0
M  V30 90 Ba 7.2853 -8.1433 -0.1625 0
M  V30 91 Ba 1.9536 1.0229 1.1183 0
M  V30 92 Ga 3.2888 0.4158 0.9898 0
M  V30 93 Ba 4.6114 -0.2104 0.8254 0
M  V30 94 Ba -4.3486 1.3117 3.4413 0
M  V30 95 Ga -5.7368 1.8130 3.3833 0
M  V30 96 Ba -7.1573 2.2127 3.3184 0
M  V30 97 Ba -0.5575 0.4242 -1.1916 0
M  V30 98 Ga -0.3770 -0.5096 -2.3157 0
M  V30 99 Ba -0.1606 -1.4505 -3.4276 0
M  V30 END ATOM
M  V30 BEGIN BOND
M  V30 1 1 1 2
M  V30 2 1 1 3
M  V30 3 1 1 4
M  V30 4 1 1 5
M  V30 5 1 6 7
M  V30 6 1 6 8
M  V30 7 1 6 9
M  V30 8 1 6 10
M  V30 9 1 11 12
M  V30 10 1 11 13
M  V30 11 1 11 14
M  V30 12 1 11 15
M  V30 13 1 16 17
M  V30 14 1 16 18
M  V30 15 1 16 19
M  V30 16 1 16 20
M  V30 17 1 21 22
M  V30 18 1 21 23
M  V30 19 1 21 24
M  V30 20 1 21 25
M  V30 21 1 26 27
M  V30 22 1 26 28
M  V30 23 1 26 29
M  V30 24 1 26 30
M  V30 25 1 31 32
M  V30 26 1 31 33
M  V30 27 1 31 34
M  V30 28 1 31 35
M  V30 29 1 36 37
M  V30 30 1 36 38
M  V30 31 1 36 39
M  V30 32 1 36 40
M  V30 33 1 41 42
M  V30 34 1 41 43
M  V30 35 1 41 44
M  V30 36 1 41 45
M  V30 37 1 46 47
M  V30 38 1 47 48
M  V30 39 1 49 50
M  V30 40 1 50 51
M  V30 41 1 52 53
M  V30 42 1 53 54
M  V30 43 1 55 56
M  V30 44 1 56 57
M  V30 45 1 58 59
M  V30 46 1 59 60
M  V30 47 1 61 62
M  V30 48 1 62 63
M  V30 49 1 64 65
M  V30 50 1 65 66
M  V30 51 1 67 68
M  V30 52 1 68 69
M  V30 53 1 70 71
M  V30 54 1 71 72
M  V30 55 1 73 74
M  V30 56 1 74 75
M  V30 57 1 76 77
M  V30 58 1 77 78
M  V30 59 1 79 80
M  V30 60 1 80 81
M  V30 61 1 82 83
M  V30 62 1 83 84
M  V30 63 1 85 86
M  V30 64 1 86 87
M  V30 65 1 88 89
M  V30 66 1 89 90
M  V30 67 1 91 92
M  V30 68 1 92 93
M  V30 69 1 94 95
M  V30 70 1 95 96
M  V30 71 1 97 98
M  V30 72 1 98 99
M  V30 73 1 2 97
M  V30 74 1 3 67
M  V30 75 1 4 70
M  V30 76 1 5 91
M  V30 77 1 7 72
M  V30 78 1 8 79
M  V30 79 1 9 94
M  V30 80 1 10 73
M  V30 81 1 12 64
M  V30 82 1 13 76
M  V30 83 1 14 96
M  V30 84 1 15 61
M  V30 85 1 17 55
M  V30 86 1 18 46
M  V30 87 1 19 88
M  V30 88 1 20 82
M  V30 89 1 22 93
M  V30 90 1 23 85
M  V30 91 1 24 58
M  V30 92 1 25 49
M  V30 93 1 27 52
M  V30 94 1 28 78
M  V30 95 1 29 63
M  V30 96 1 30 66
M  V30 97 1 32 87
M  V30 98 1 33 57
M  V30 99 1 34 90
M  V30 100 1 35 84
M  V30 101 1 37 99
M  V30 102 1 38 51
M  V30 103 1 39 48
M  V30 104 1 40 60
M  V30 105 1 42 54
M  V30 106 1 43 69
M  V30 107 1 44 81
M  V30 108 1 45 75
M  V30 END BOND
M  V30 END CTAB
M  END

$$$$
