
     RDKit          3D

  0  0  0  0  0  0  0  0  0  0999 V3000
M  V30 BEGIN CTAB
M  V30 COUNTS 99 108 0 0 0
M  V30 BEGIN ATOM
M  V30 1 Pd 4.2757 3.4963 -0.1498 0
M  V30 2 Pb 4.2331 3.5532 -1.1470 0
M  V30 3 Pb 3.6178 4.2495 -0.0776 0
M  V30 4 Pb 4.9119 2.7312 -0.2534 0
M  V30 5 Pb 4.3323 3.4136 0.8459 0
M  V30 6 Pd -4.0371 3.0870 4.3573 0
M  V30 7 Pb -3.5522 2.4657 3.7396 0
M  V30 8 Pb -4.5435 3.7053 4.9511 0
M  V30 9 Pb -3.7765 2.5684 5.1731 0
M  V30 10 Pb -4.1602 3.7381 3.5852 0
M  V30 11 Pd -2.9664 -3.4823 -4.6892 0
M  V30 12 Pb -2.1591 -3.3684 -5.3131 0
M  V30 13 Pb -3.6864 -3.5194 -3.9986 0
M  V30 14 Pb -2.8852 -4.4828 -4.6530 0
M  V30 15 Pb -3.1469 -2.5114 -4.7427 0
M  V30 16 Pd -0.3809 -7.4272 -1.9564 0
M  V30 17 Pb -1.1640 -7.4777 -2.5733 0
M  V30 18 Pb 0.4314 -7.2549 -1.3969 0
M  V30 19 Pb -0.9636 -7.4089 -1.1441 0
M  V30 20 Pb 0.2173 -7.4098 -2.7517 0
M  V30 21 Pd -3.1305 -2.4477 2.5849 0
M  V30 22 Pb -3.0136 -1.4601 2.4575 0
M  V30 23 Pb -3.7792 -2.5096 1.8270 0
M  V30 24 Pb -3.1551 -3.4446 2.6203 0
M  V30 25 Pb -2.4433 -2.4118 3.3076 0
M  V30 26 Pd 5.2856 -3.3615 -3.4168 0
M  V30 27 Pb 5.0695 -3.8788 -2.5870 0
M  V30 28 Pb 5.4016 -2.8663 -4.2758 0
M  V30 29 Pb 5.6977 -2.6232 -2.8809 0
M  V30 30 Pb 4.8460 -4.0916 -3.9313 0
M  V30 31 Pd 1.8905 -0.1991 -6.2418 0
M  V30 32 Pb 2.4307 0.6085 -6.0102 0
M  V30 33 Pb 2.7467 -0.7018 -6.3786 0
M  V30 34 Pb 1.0849 0.3646 -6.1333 0
M  V30 35 Pb 1.2986 -1.0250 -6.3961 0
M  V30 36 Pd 0.7429 2.4863 6.5854 0
M  V30 37 Pb 0.7253 1.4988 6.4479 0
M  V30 38 Pb 0.7626 3.4832 6.6817 0
M  V30 39 Pb -0.1932 2.3855 6.9327 0
M  V30 40 Pb 1.6442 2.5588 6.1601 0
M  V30 41 Pd -1.6881 7.7928 2.9208 0
M  V30 42 Pb -2.3598 8.1059 3.5856 0
M  V30 43 Pb -1.0019 7.5148 2.2447 0
M  V30 44 Pb -0.9716 8.0285 3.5700 0
M  V30 45 Pb -2.4197 7.2836 2.4420 0
M  V30 46 Ag 4.2156 3.5544 -1.8965 0
M  V30 47 Fe 3.5400 2.4403 -3.8812 0
M  V30 48 Ag 2.8001 1.2164 -5.7762 0
M  V30 49 Ag -1.9059 -2.3481 3.8238 0
M  V30 50 Fe -0.5816 -0.8662 5.1183 0
M  V30 51 Ag 0.6429 0.7661 6.3273 0
M  V30 52 Ag -1.3725 -7.3521 -0.5182 0
M  V30 53 Fe -2.3077 -5.8712 1.0837 0
M  V30 54 Ag -3.1367 -4.1876 2.5368 0
M  V30 55 Ag 1.0704 -7.0477 -1.0600 0
M  V30 56 Fe 3.0093 -5.7138 -1.3946 0
M  V30 57 Ag 4.8205 -4.3081 -2.0225 0
M  V30 58 Ag -3.2043 -1.7809 -4.8129 0
M  V30 59 Fe -1.6741 -0.1001 -5.3990 0
M  V30 60 Ag 0.4415 0.7038 -6.0216 0
M  V30 61 Ag -4.8295 4.2821 5.3167 0
M  V30 62 Fe -4.2316 6.5459 5.1054 0
M  V30 63 Ag -2.8904 8.1918 4.0952 0
M  V30 64 Ag 0.7084 -7.3364 -3.3068 0
M  V30 65 Fe 2.6085 -6.0760 -3.9455 0
M  V30 66 Ag 4.4664 -4.6419 -4.2600 0
M  V30 67 Ag 5.3731 2.1510 -0.3718 0
M  V30 68 Fe 5.7128 0.0371 -1.4018 0
M  V30 69 Ag 5.9861 -2.0731 -2.4587 0
M  V30 70 Ag 4.3876 3.3261 1.5895 0
M  V30 71 Fe 3.3704 2.9836 3.7083 0
M  V30 72 Ag 2.2950 2.6423 5.7983 0
M  V30 73 Ag 0.8337 4.2317 6.6744 0
M  V30 74 Fe 0.2893 6.2419 5.5340 0
M  V30 75 Ag -0.4985 7.9987 4.1458 0
M  V30 76 Ag 3.1179 4.8121 -0.0694 0
M  V30 77 Fe 1.3177 6.0406 0.8814 0
M  V30 78 Ag -0.4774 7.3482 1.7313 0
M  V30 79 Ag -4.1697 -3.4680 -3.4293 0
M  V30 80 Fe -4.3169 -3.0558 -1.0962 0
M  V30 81 Ag -4.2265 -2.6260 1.2368 0
M  V30 82 Ba -3.2007 2.0439 3.2267 0
M  V30 83 Ga -3.0644 0.6277 2.8281 0
M  V30 84 Ba -2.8401 -0.7410 2.3187 0
M  V30 85 Ba -4.2229 4.2484 3.0145 0
M  V30 86 Ga -3.5866 5.5387 2.5997 0
M  V30 87 Ba -2.9675 6.8299 2.1621 0
M  V30 88 Ba -1.5472 -3.2900 -5.7845 0
M  V30 89 Ga -0.3624 -2.4112 -6.0917 0
M  V30 90 Ba 0.8625 -1.6533 -6.5341 0
M  V30 91 Ba -2.9166 -5.2361 -4.6187 0
M  V30 92 Ga -2.3088 -6.3426 -3.8501 0
M  V30 93 Ba -1.7052 -7.4576 -3.0906 0
M  V30 94 Ba -3.5455 2.2837 5.8299 0
M  V30 95 Ga -2.2257 2.2404 6.4984 0
M  V30 96 Ba -0.8951 2.2103 7.1462 0
M  V30 97 Ba 5.4183 -2.5452 -4.9520 0
M  V30 98 Ga 4.4241 -1.7683 -5.7188 0
M  V30 99 Ba 3.4314 -0.9941 -6.4902 0
M  V30 END ATOM
M  V30 BEGIN BOND
M  V30 1 1 1 2
M  V30 2 1 1 3
M  V30 3 1 1 4
M  V30 4 1 1 5
M  V30 5 1 6 7
M  V30 6 1 6 8
M  V30 7 1 6 9
M  V30 8 1 6 10
M  V30 9 1 11 12
M  V30 10 1 11 13
M  V30 11 1 11 14
M  V30 12 1 11 15
M  V30 13 1 16 17
M  V30 14 1 16 18
M  V30 15 1 16 19
M  V30 16 1 16 20
M  V30 17 1 21 22
M  V30 18 1 21 23
M  V30 19 1 21 24
M  V30 20 1 21 25
M  V30 21 1 26 27
M  V30 22 1 26 28
M  V30 23 1 26 29
M  V30 24 1 26 30
M  V30 25 1 31 32
M  V30 26 1 31 33
M  V30 27 1 31 34
M  V30 28 1 31 35
M  V30 29 1 36 37
M  V30 30 1 36 38
M  V30 31 1 36 39
M  V30 32 1 36 40
M  V30 33 1 41 42
M  V30 34 1 41 43
M  V30 35 1 41 44
M  V30 36 1 41 45
M  V30 37 1 46 47
M  V30 38 1 47 48
M  V30 39 1 49 50
M  V30 40 1 50 51
M  V30 41 1 52 53
M  V30 42 1 53 54
M  V30 43 1 55 56
M  V30 44 1 56 57
M  V30 45 1 58 59
M  V30 46 1 59 60
M  V30 47 1 61 62
M  V30 48 1 62 63
M  V30 49 1 64 65
M  V30 50 1 65 66
M  V30 51 1 67 68
M  V30 52 1 68 69
M  V30 53 1 70 71
M  V30 54 1 71 72
M  V30 55 1 73 74
M  V30 56 1 74 75
M  V30 57 1 76 77
M  V30 58 1 77 78
M  V30 59 1 79 80
M  V30 60 1 80 81
M  V30 61 1 82 83
M  V30 62 1 83 84
M  V30 63 1 85 86
M  V30 64 1 86 87
M  V30 65 1 88 89
M  V30 66 1 89 90
M  V30 67 1 91 92
M  V30 68 1 92 93
M  V30 69 1 94 95
M  V30 70 1 95 96
M  V30 71 1 97 98
M  V30 72 1 98 99
M  V30 73 1 2 46
M  V30 74 1 3 76
M  V30 75 1 4 67
M  V30 76 1 5 70
M  V30 77 1 7 82
M  V30 78 1 8 61
M  V30 79 1 9 94
M  V30 80 1 10 85
M  V30 81 1 12 88
M  V30 82 1 13 79
M  V30 83 1 14 91
M  V30 84 1 15 58
M  V30 85 1 17 93
M  V30 86 1 18 55
M  V30 87 1 19 52
M  V30 88 1 20 64
M  V30 89 1 22 84
M  V30 90 1 23 81
M  V30 91 1 24 54
M  V30 92 1 25 49
M  V30 93 1 27 57
M  V30 94 1 28 97
M  V30 95 1 29 69
M  V30 96 1 30 66
M  V30 97 1 32 48
M  V30 98 1 33 99
M  V30 99 1 34 60
M  V30 100 1 35 90
M  V30 101 1 37 51
M  V30 102 1 38 73
M  V30 103 1 39 96
M  V30 104 1 40 72
M  V30 105 1 42 63
M  V30 106 1 43 78
M  V30 107 1 44 75
M  V30 108 1 45 87
M  V30 END BOND
M  V30 END CTAB
M  END

$$$$
