
     RDKit          3D

  0  0  0  0  0  0  0  0  0  0999 V3000
M  V30 BEGIN CTAB
M  V30 COUNTS 99 108 0 0 0
M  V30 BEGIN ATOM
M  V30 1 Pd 3.2395 -1.4465 2.5770 0
M  V30 2 Pb 3.4647 -1.4293 3.5525 0
M  V30 3 Pb 2.9746 -1.4508 1.6157 0
M  V30 4 Pb 2.6214 -2.2142 2.7312 0
M  V30 5 Pb 3.8143 -0.6551 2.3710 0
M  V30 6 Pd 1.8946 -2.0141 -8.6583 0
M  V30 7 Pb 1.1092 -1.3970 -8.6047 0
M  V30 8 Pb 2.6897 -2.6150 -8.6055 0
M  V30 9 Pb 2.5157 -1.2619 -8.8681 0
M  V30 10 Pb 1.3760 -2.7323 -8.1991 0
M  V30 11 Pd -3.5348 4.6591 3.0996 0
M  V30 12 Pb -3.7709 4.1183 3.9065 0
M  V30 13 Pb -3.2590 5.1164 2.2585 0
M  V30 14 Pb -4.4851 4.6859 2.7888 0
M  V30 15 Pb -2.5808 4.5817 3.3870 0
M  V30 16 Pd -6.4294 0.7373 1.6500 0
M  V30 17 Pb -6.6871 1.6997 1.5788 0
M  V30 18 Pb -6.7881 0.7361 2.5755 0
M  V30 19 Pb -6.1213 0.7471 0.6943 0
M  V30 20 Pb -6.1175 -0.2238 1.7853 0
M  V30 21 Pd -1.8117 3.1307 -4.1951 0
M  V30 22 Pb -1.7312 2.5487 -5.0073 0
M  V30 23 Pb -1.9132 3.7664 -3.4316 0
M  V30 24 Pb -2.6427 2.6466 -3.9111 0
M  V30 25 Pb -0.9349 3.5626 -4.4044 0
M  V30 26 Pd -3.6073 -3.2145 5.1873 0
M  V30 27 Pb -4.3420 -2.8143 5.7216 0
M  V30 28 Pb -3.0639 -3.3521 6.0165 0
M  V30 29 Pb -2.8456 -3.5985 4.6706 0
M  V30 30 Pb -4.1257 -3.0180 4.3301 0
M  V30 31 Pd 0.2547 -0.2876 6.8179 0
M  V30 32 Pb 1.1930 -0.6281 6.7301 0
M  V30 33 Pb -0.0573 -1.1455 7.2284 0
M  V30 34 Pb 0.5135 0.5719 6.3798 0
M  V30 35 Pb -0.6747 0.0797 6.8733 0
M  V30 36 Pd 5.5468 1.7313 -3.6872 0
M  V30 37 Pb 4.9069 2.4777 -3.8701 0
M  V30 38 Pb 6.1395 0.9495 -3.4834 0
M  V30 39 Pb 5.5403 1.5576 -4.6755 0
M  V30 40 Pb 5.5331 1.9030 -2.7007 0
M  V30 41 Pd 4.4785 -3.3799 -2.8201 0
M  V30 42 Pb 4.9434 -3.8137 -3.5877 0
M  V30 43 Pb 3.9340 -2.8566 -2.1652 0
M  V30 44 Pb 5.3068 -2.8513 -2.6288 0
M  V30 45 Pb 3.6430 -3.8361 -3.1307 0
M  V30 46 Ag 0.5217 -0.9407 -8.5050 0
M  V30 47 Fe -0.5854 0.6054 -7.0790 0
M  V30 48 Ag -1.6834 2.1488 -5.6431 0
M  V30 49 Ag -0.2520 3.8581 -4.4966 0
M  V30 50 Fe 2.0874 3.5001 -4.2974 0
M  V30 51 Ag 4.3949 2.9960 -4.0491 0
M  V30 52 Ag -5.9368 0.7743 -0.0365 0
M  V30 53 Fe -4.5798 1.5229 -1.8416 0
M  V30 54 Ag -3.2374 2.2566 -3.6637 0
M  V30 55 Ag -6.9935 0.6447 3.2802 0
M  V30 56 Fe -6.2514 -0.7674 5.0112 0
M  V30 57 Ag -4.9049 -2.4252 5.9998 0
M  V30 58 Ag -1.8825 4.4547 3.6272 0
M  V30 59 Fe -0.5151 2.9197 4.8139 0
M  V30 60 Ag 0.6177 1.2274 6.0333 0
M  V30 61 Ag 1.1307 -3.2278 -7.6956 0
M  V30 62 Fe 1.8796 -3.8667 -5.5355 0
M  V30 63 Ag 3.0384 -4.1149 -3.4781 0
M  V30 64 Ag 3.2763 -3.0447 -8.4349 0
M  V30 65 Fe 4.4347 -3.7257 -6.4836 0
M  V30 66 Ag 5.1694 -4.0551 -4.2558 0
M  V30 67 Ag -3.8544 3.6609 4.4947 0
M  V30 68 Fe -2.7102 2.0132 5.7666 0
M  V30 69 Ag -1.3506 0.4066 6.8679 0
M  V30 70 Ag 3.0463 -0.7338 -8.8527 0
M  V30 71 Fe 4.3285 0.4432 -7.2340 0
M  V30 72 Ag 5.4701 1.4739 -5.4213 0
M  V30 73 Ag 2.1190 -2.7621 2.8108 0
M  V30 74 Fe -0.0484 -3.3819 3.5486 0
M  V30 75 Ag -2.2349 -3.8640 4.3314 0
M  V30 76 Ag 4.1970 -0.0612 2.1197 0
M  V30 77 Fe 4.9160 1.0340 0.1378 0
M  V30 78 Ag 5.5416 1.9742 -1.9526 0
M  V30 79 Ag -3.0445 5.3962 1.6006 0
M  V30 80 Fe -2.5095 4.8716 -0.6502 0
M  V30 81 Ag -1.9879 4.2739 -2.8860 0
M  V30 82 Ba 3.5963 -1.4351 4.2923 0
M  V30 83 Ga 2.7611 -1.1485 5.4771 0
M  V30 84 Ba 1.9046 -0.8561 6.6450 0
M  V30 85 Ba -5.8976 -0.9550 1.8787 0
M  V30 86 Ga -5.1850 -1.8667 2.8311 0
M  V30 87 Ba -4.5039 -2.9065 3.6684 0
M  V30 88 Ba -5.1846 4.6791 2.5181 0
M  V30 89 Ga -6.0487 3.5851 2.0384 0
M  V30 90 Ba -6.8446 2.4318 1.5805 0
M  V30 91 Ba 6.5565 0.3672 -3.2522 0
M  V30 92 Ga 6.2612 -1.0397 -2.9077 0
M  V30 93 Ba 5.9346 -2.4419 -2.5725 0
M  V30 94 Ba 2.7483 -1.4265 0.9041 0
M  V30 95 Ga 3.1593 -1.9680 -0.4032 0
M  V30 96 Ba 3.4550 -2.4380 -1.7677 0
M  V30 97 Ba -2.6148 -3.4301 6.6133 0
M  V30 98 Ga -1.4722 -2.6295 7.0964 0
M  V30 99 Ba -0.3413 -1.7782 7.5164 0
M  V30 END ATOM
M  V30 BEGIN BOND
M  V30 1 1 1 2
M  V30 2 1 1 3
M  V30 3 1 1 4
M  V30 4 1 1 5
M  V30 5 1 6 7
M  V30 6 1 6 8
M  V30 7 1 6 9
M  V30 8 1 6 10
M  V30 9 1 11 12
M  V30 10 1 11 13
M  V30 11 1 11 14
M  V30 12 1 11 15
M  V30 13 1 16 17
M  V30 14 1 16 18
M  V30 15 1 16 19
M  V30 16 1 16 20
M  V30 17 1 21 22
M  V30 18 1 21 23
M  V30 19 1 21 24
M  V30 20 1 21 25
M  V30 21 1 26 27
M  V30 22 1 26 28
M  V30 23 1 26 29
M  V30 24 1 26 30
M  V30 25 1 31 32
M  V30 26 1 31 33
M  V30 27 1 31 34
M  V30 28 1 31 35
M  V30 29 1 36 37
M  V30 30 1 36 38
M  V30 31 1 36 39
M  V30 32 1 36 40
M  V30 33 1 41 42
M  V30 34 1 41 43
M  V30 35 1 41 44
M  V30 36 1 41 45
M  V30 37 1 46 47
M  V30 38 1 47 48
M  V30 39 1 49 50
M  V30 40 1 50 51
M  V30 41 1 52 53
M  V30 42 1 53 54
M  V30 43 1 55 56
M  V30 44 1 56 57
M  V30 45 1 58 59
M  V30 46 1 59 60
M  V30 47 1 61 62
M  V30 48 1 62 63
M  V30 49 1 64 65
M  V30 50 1 65 66
M  V30 51 1 67 68
M  V30 52 1 68 69
M  V30 53 1 70 71
M  V30 54 1 71 72
M  V30 55 1 73 74
M  V30 56 1 74 75
M  V30 57 1 76 77
M  V30 58 1 77 78
M  V30 59 1 79 80
M  V30 60 1 80 81
M  V30 61 1 82 83
M  V30 62 1 83 84
M  V30 63 1 85 86
M  V30 64 1 86 87
M  V30 65 1 88 89
M  V30 66 1 89 90
M  V30 67 1 91 92
M  V30 68 1 92 93
M  V30 69 1 94 95
M  V30 70 1 95 96
M  V30 71 1 97 98
M  V30 72 1 98 99
M  V30 73 1 2 82
M  V30 74 1 3 94
M  V30 75 1 4 73
M  V30 76 1 5 76
M  V30 77 1 7 46
M  V30 78 1 8 64
M  V30 79 1 9 70
M  V30 80 1 10 61
M  V30 81 1 12 67
M  V30 82 1 13 79
M  V30 83 1 14 88
M  V30 84 1 15 58
M  V30 85 1 17 90
M  V30 86 1 18 55
M  V30 87 1 19 52
M  V30 88 1 20 85
M  V30 89 1 22 48
M  V30 90 1 23 81
M  V30 91 1 24 54
M  V30 92 1 25 49
M  V30 93 1 27 57
M  V30 94 1 28 97
M  V30 95 1 29 75
M  V30 96 1 30 87
M  V30 97 1 32 84
M  V30 98 1 33 99
M  V30 99 1 34 60
M  V30 100 1 35 69
M  V30 101 1 37 51
M  V30 102 1 38 91
M  V30 103 1 39 72
M  V30 104 1 40 78
M  V30 105 1 42 66
M  V30 106 1 43 96
M  V30 107 1 44 93
M  V30 108 1 45 63
M  V30 END BOND
M  V30 END CTAB
M  END

$$$$
