
     RDKit          3D

  0  0  0  0  0  0  0  0  0  0999 V3000
M  V30 BEGIN CTAB
M  V30 COUNTS 99 108 0 0 0
M  V30 BEGIN ATOM
M  V30 1 Pd -0.8249 3.5342 2.5378 0
M  V30 2 Pb -1.1675 2.8978 3.2295 0
M  V30 3 Pb -0.0022 3.5863 3.1135 0
M  V30 4 Pb -1.7291 3.5669 2.1085 0
M  V30 5 Pb -0.5088 4.1304 1.7905 0
M  V30 6 Pd 7.7726 0.2396 -0.2308 0
M  V30 7 Pb 7.2263 -0.4204 -0.7456 0
M  V30 8 Pb 8.2579 0.9339 0.2924 0
M  V30 9 Pb 7.8852 0.7915 -1.0509 0
M  V30 10 Pb 7.5182 -0.1712 0.6469 0
M  V30 11 Pd -1.4520 -6.2695 0.3225 0
M  V30 12 Pb -1.0716 -6.0170 1.2130 0
M  V30 13 Pb -0.5838 -6.0734 -0.1333 0
M  V30 14 Pb -1.8425 -6.4805 -0.5733 0
M  V30 15 Pb -2.3322 -6.4307 0.7698 0
M  V30 16 Pd -4.5880 -2.8190 -5.4526 0
M  V30 17 Pb -4.2825 -3.7464 -5.2427 0
M  V30 18 Pb -4.8916 -1.8735 -5.5548 0
M  V30 19 Pb -3.6721 -2.5620 -5.7570 0
M  V30 20 Pb -5.4803 -3.0098 -5.0455 0
M  V30 21 Pd 2.7323 -0.9723 -3.3468 0
M  V30 22 Pb 3.6283 -1.0130 -2.8924 0
M  V30 23 Pb 2.6446 -1.9315 -3.0767 0
M  V30 24 Pb 1.9162 -1.0512 -3.9219 0
M  V30 25 Pb 2.7501 0.0020 -3.6005 0
M  V30 26 Pd -7.5848 0.9775 -0.4951 0
M  V30 27 Pb -7.3895 1.2910 -1.4226 0
M  V30 28 Pb -7.7035 0.5875 0.4167 0
M  V30 29 Pb -7.0783 1.7533 -0.1220 0
M  V30 30 Pb -7.9813 0.1586 -0.9082 0
M  V30 31 Pd -3.6826 -3.4438 4.0125 0
M  V30 32 Pb -3.3287 -2.5960 4.4076 0
M  V30 33 Pb -4.5817 -3.0103 3.9582 0
M  V30 34 Pb -4.0326 -4.2765 3.5827 0
M  V30 35 Pb -2.7732 -3.8613 4.0280 0
M  V30 36 Pd 2.8337 4.7423 -1.9189 0
M  V30 37 Pb 2.5605 4.0661 -2.6088 0
M  V30 38 Pb 3.1355 5.4016 -1.2329 0
M  V30 39 Pb 3.7601 4.6104 -2.2661 0
M  V30 40 Pb 1.9146 4.8842 -1.5405 0
M  V30 41 Pd 4.8332 3.9633 4.6319 0
M  V30 42 Pb 5.7902 4.0601 4.3748 0
M  V30 43 Pb 3.8595 3.8447 4.8241 0
M  V30 44 Pb 4.6574 4.8805 4.2889 0
M  V30 45 Pb 5.0228 2.9900 4.7750 0
M  V30 46 Ag -1.3955 2.3991 3.7417 0
M  V30 47 Fe -2.2420 0.2363 4.2395 0
M  V30 48 Ag -3.0897 -1.9387 4.6784 0
M  V30 49 Ag -2.9835 -2.3229 -5.9303 0
M  V30 50 Fe -0.8145 -1.7407 -5.1550 0
M  V30 51 Ag 1.3665 -1.1427 -4.4268 0
M  V30 52 Ag -5.1540 -1.1742 -5.5161 0
M  V30 53 Fe -6.1904 0.2891 -3.9633 0
M  V30 54 Ag -7.1979 1.4152 -2.1348 0
M  V30 55 Ag 7.2744 -0.3294 1.3410 0
M  V30 56 Fe 6.2413 0.7877 3.1694 0
M  V30 57 Ag 5.2252 2.2665 4.7309 0
M  V30 58 Ag 8.5199 1.4698 0.7380 0
M  V30 59 Fe 7.7293 2.8838 2.4637 0
M  V30 60 Ag 6.4843 4.0485 4.1055 0
M  V30 61 Ag -6.1274 -3.0497 -4.6706 0
M  V30 62 Fe -7.3188 -1.8862 -2.9795 0
M  V30 63 Ag -8.1728 -0.4584 -1.2868 0
M  V30 64 Ag -2.1176 -6.5925 -1.2616 0
M  V30 65 Fe -3.0913 -5.5949 -3.1832 0
M  V30 66 Ag -4.0563 -4.4200 -5.0065 0
M  V30 67 Ag 7.8376 1.3008 -1.5916 0
M  V30 68 Fe 6.2619 2.9489 -2.2357 0
M  V30 69 Ag 4.4393 4.4355 -2.5260 0
M  V30 70 Ag -2.4291 3.6659 1.8522 0
M  V30 71 Fe -4.5283 2.9642 0.9887 0
M  V30 72 Ag -6.6416 2.3114 0.1212 0
M  V30 73 Ag 3.3165 5.8579 -0.6686 0
M  V30 74 Fe 3.9313 5.9013 1.6197 0
M  V30 75 Ag 4.5343 5.4854 3.8730 0
M  V30 76 Ag -7.7352 0.2407 1.0795 0
M  V30 77 Fe -6.5595 -1.2012 2.5542 0
M  V30 78 Ag -5.2333 -2.6453 3.8927 0
M  V30 79 Ag 0.0453 -5.9102 -0.5077 0
M  V30 80 Fe 1.3355 -4.2958 -1.6786 0
M  V30 81 Ag 2.5826 -2.6406 -2.8392 0
M  V30 82 Ba 6.8220 -0.9157 -1.1369 0
M  V30 83 Ga 5.5291 -0.9738 -1.8545 0
M  V30 84 Ba 4.2932 -1.2488 -2.6186 0
M  V30 85 Ba 2.6331 0.7039 -3.8604 0
M  V30 86 Ga 2.5606 2.1257 -3.4460 0
M  V30 87 Ba 2.4531 3.5799 -3.1758 0
M  V30 88 Ba -2.9862 -6.5193 1.1267 0
M  V30 89 Ga -3.6527 -5.7336 2.1829 0
M  V30 90 Ba -4.2627 -4.9022 3.2383 0
M  V30 91 Ba -0.8215 -5.8072 1.8891 0
M  V30 92 Ga -1.4308 -5.0021 2.9658 0
M  V30 93 Ba -2.0985 -4.1894 4.0016 0
M  V30 94 Ba -0.4100 4.5590 1.1736 0
M  V30 95 Ga 0.4758 4.7668 0.0029 0
M  V30 96 Ba 1.2656 5.0842 -1.2114 0
M  V30 97 Ba 0.4715 3.5927 3.7036 0
M  V30 98 Ga 1.8484 3.6890 4.2345 0
M  V30 99 Ba 3.1293 3.7623 4.9720 0
M  V30 END ATOM
M  V30 BEGIN BOND
M  V30 1 1 1 2
M  V30 2 1 1 3
M  V30 3 1 1 4
M  V30 4 1 1 5
M  V30 5 1 6 7
M  V30 6 1 6 8
M  V30 7 1 6 9
M  V30 8 1 6 10
M  V30 9 1 11 12
M  V30 10 1 11 13
M  V30 11 1 11 14
M  V30 12 1 11 15
M  V30 13 1 16 17
M  V30 14 1 16 18
M  V30 15 1 16 19
M  V30 16 1 16 20
M  V30 17 1 21 22
M  V30 18 1 21 23
M  V30 19 1 21 24
M  V30 20 1 21 25
M  V30 21 1 26 27
M  V30 22 1 26 28
M  V30 23 1 26 29
M  V30 24 1 26 30
M  V30 25 1 31 32
M  V30 26 1 31 33
M  V30 27 1 31 34
M  V30 28 1 31 35
M  V30 29 1 36 37
M  V30 30 1 36 38
M  V30 31 1 36 39
M  V30 32 1 36 40
M  V30 33 1 41 42
M  V30 34 1 41 43
M  V30 35 1 41 44
M  V30 36 1 41 45
M  V30 37 1 46 47
M  V30 38 1 47 48
M  V30 39 1 49 50
M  V30 40 1 50 51
M  V30 41 1 52 53
M  V30 42 1 53 54
M  V30 43 1 55 56
M  V30 44 1 56 57
M  V30 45 1 58 59
M  V30 46 1 59 60
M  V30 47 1 61 62
M  V30 48 1 62 63
M  V30 49 1 64 65
M  V30 50 1 65 66
M  V30 51 1 67 68
M  V30 52 1 68 69
M  V30 53 1 70 71
M  V30 54 1 71 72
M  V30 55 1 73 74
M  V30 56 1 74 75
M  V30 57 1 76 77
M  V30 58 1 77 78
M  V30 59 1 79 80
M  V30 60 1 80 81
M  V30 61 1 82 83
M  V30 62 1 83 84
M  V30 63 1 85 86
M  V30 64 1 86 87
M  V30 65 1 88 89
M  V30 66 1 89 90
M  V30 67 1 91 92
M  V30 68 1 92 93
M  V30 69 1 94 95
M  V30 70 1 95 96
M  V30 71 1 97 98
M  V30 72 1 98 99
M  V30 73 1 2 46
M  V30 74 1 3 97
M  V30 75 1 4 70
M  V30 76 1 5 94
M  V30 77 1 7 82
M  V30 78 1 8 58
M  V30 79 1 9 67
M  V30 80 1 10 55
M  V30 81 1 12 91
M  V30 82 1 13 79
M  V30 83 1 14 64
M  V30 84 1 15 88
M  V30 85 1 17 66
M  V30 86 1 18 52
M  V30 87 1 19 49
M  V30 88 1 20 61
M  V30 89 1 22 84
M  V30 90 1 23 81
M  V30 91 1 24 51
M  V30 92 1 25 85
M  V30 93 1 27 54
M  V30 94 1 28 76
M  V30 95 1 29 72
M  V30 96 1 30 63
M  V30 97 1 32 48
M  V30 98 1 33 78
M  V30 99 1 34 90
M  V30 100 1 35 93
M  V30 101 1 37 87
M  V30 102 1 38 73
M  V30 103 1 39 69
M  V30 104 1 40 96
M  V30 105 1 42 60
M  V30 106 1 43 99
M  V30 107 1 44 75
M  V30 108 1 45 57
M  V30 END BOND
M  V30 END CTAB
M  END

$$$$
