
     RDKit          3D

  0  0  0  0  0  0  0  0  0  0999 V3000
M  V30 BEGIN CTAB
M  V30 COUNTS 99 108 0 0 0
M  V30 BEGIN ATOM
M  V30 1 Pd 1.5934 2.9817 3.5232 0
M  V30 2 Pb 1.1779 2.5198 4.3071 0
M  V30 3 Pb 2.3437 2.3183 3.5693 0
M  V30 4 Pb 0.8559 3.6570 3.5339 0
M  V30 5 Pb 1.9623 3.4247 2.7043 0
M  V30 6 Pd 6.7862 -4.2390 -2.0627 0
M  V30 7 Pb 5.8236 -4.4730 -2.2063 0
M  V30 8 Pb 6.7695 -4.6324 -1.1415 0
M  V30 9 Pb 6.7985 -3.7255 -2.9182 0
M  V30 10 Pb 7.7358 -3.9779 -1.9036 0
M  V30 11 Pd -4.3869 -2.8596 0.0261 0
M  V30 12 Pb -4.8555 -2.2189 0.6231 0
M  V30 13 Pb -3.9451 -3.5142 -0.5906 0
M  V30 14 Pb -5.2534 -2.9347 -0.4633 0
M  V30 15 Pb -3.5409 -2.7400 0.5553 0
M  V30 16 Pd -7.1705 0.9721 -2.2857 0
M  V30 17 Pb -7.3789 0.0329 -2.0087 0
M  V30 18 Pb -6.9768 1.8874 -2.6162 0
M  V30 19 Pb -6.7337 0.5959 -3.1000 0
M  V30 20 Pb -7.5005 1.3684 -1.4043 0
M  V30 21 Pd -0.7740 -2.6432 -4.0319 0
M  V30 22 Pb 0.0569 -3.1149 -3.7284 0
M  V30 23 Pb -1.3070 -3.3844 -3.6229 0
M  V30 24 Pb -1.6186 -2.2224 -4.3630 0
M  V30 25 Pb -0.2634 -1.8637 -4.3988 0
M  V30 26 Pd -5.7260 4.4042 2.3240 0
M  V30 27 Pb -5.6884 4.9485 1.4953 0
M  V30 28 Pb -5.7495 3.9043 3.1911 0
M  V30 29 Pb -4.9261 4.8908 2.6686 0
M  V30 30 Pb -6.4630 3.8336 1.9067 0
M  V30 31 Pd -3.0680 0.2740 4.2349 0
M  V30 32 Pb -2.2600 0.4895 4.7869 0
M  V30 33 Pb -3.6247 0.9349 4.7342 0
M  V30 34 Pb -2.5570 -0.4023 3.6951 0
M  V30 35 Pb -3.8883 0.0793 3.7098 0
M  V30 36 Pd 4.8538 2.5439 -3.4149 0
M  V30 37 Pb 4.0245 2.3391 -3.9335 0
M  V30 38 Pb 5.6650 2.6700 -2.8461 0
M  V30 39 Pb 5.3173 1.8438 -3.9559 0
M  V30 40 Pb 4.3775 3.1779 -2.8068 0
M  V30 41 Pd 7.9589 -1.4526 1.6798 0
M  V30 42 Pb 7.7059 -2.4075 1.8469 0
M  V30 43 Pb 7.2312 -1.1285 2.2859 0
M  V30 44 Pb 8.1492 -0.5162 1.3923 0
M  V30 45 Pb 8.6616 -1.7782 1.0509 0
M  V30 46 Ag 5.0994 -4.6435 -2.3087 0
M  V30 47 Fe 2.8863 -4.0254 -2.9177 0
M  V30 48 Ag 0.6326 -3.5422 -3.4990 0
M  V30 49 Ag 0.0695 -1.2420 -4.6591 0
M  V30 50 Fe 1.7353 0.4456 -4.5107 0
M  V30 51 Ag 3.4244 2.1052 -4.3171 0
M  V30 52 Ag -6.3360 0.3047 -3.6622 0
M  V30 53 Fe -4.3133 -0.8126 -4.2049 0
M  V30 54 Ag -2.2584 -1.9264 -4.6192 0
M  V30 55 Ag -6.8111 2.5957 -2.7437 0
M  V30 56 Fe -6.1876 4.3331 -1.2872 0
M  V30 57 Ag -5.6941 5.2498 0.8211 0
M  V30 58 Ag 6.8044 -3.2491 -3.4946 0
M  V30 59 Fe 6.2631 -1.0085 -4.0569 0
M  V30 60 Ag 5.6228 1.2616 -4.3139 0
M  V30 61 Ag 0.3057 4.1660 3.5637 0
M  V30 62 Fe -1.9766 4.7394 3.2523 0
M  V30 63 Ag -4.2802 5.1893 2.8984 0
M  V30 64 Ag 2.1789 3.7699 2.0725 0
M  V30 65 Fe 3.1139 3.7212 -0.1111 0
M  V30 66 Ag 4.0603 3.6160 -2.2878 0
M  V30 67 Ag 6.2344 2.7148 -2.3620 0
M  V30 68 Fe 7.3422 1.5552 -0.6134 0
M  V30 69 Ag 8.2385 0.1583 1.0820 0
M  V30 70 Ag 2.8846 1.8085 3.6877 0
M  V30 71 Fe 4.7864 0.4893 3.1462 0
M  V30 72 Ag 6.6801 -0.8878 2.7357 0
M  V30 73 Ba 0.8572 2.1546 4.8788 0
M  V30 74 Ga -0.4055 1.4072 5.0453 0
M  V30 75 Ba -1.6667 0.6586 5.2168 0
M  V30 76 Ba -2.9180 -2.6316 0.9682 0
M  V30 77 Ga -2.5582 -1.7725 2.1213 0
M  V30 78 Ba -2.1953 -0.9147 3.2743 0
M  V30 79 Ba 8.4275 -3.7510 -1.7348 0
M  V30 80 Ga 8.8673 -2.9042 -0.6164 0
M  V30 81 Ba 9.1431 -2.0509 0.5487 0
M  V30 82 Ba 6.7842 -4.8421 -0.4193 0
M  V30 83 Ga 7.1327 -4.0441 0.7759 0
M  V30 84 Ba 7.5042 -3.1314 1.8784 0
M  V30 85 Ba -5.2321 -1.7446 1.0544 0
M  V30 86 Ga -4.8815 -0.8935 2.1948 0
M  V30 87 Ba -4.5176 -0.0470 3.3346 0
M  V30 88 Ba -7.7517 1.6667 -0.7389 0
M  V30 89 Ga -7.3187 2.5459 0.3978 0
M  V30 90 Ba -7.0209 3.4031 1.5934 0
M  V30 91 Ba -5.9349 -2.9254 -0.7725 0
M  V30 92 Ga -6.7421 -1.8233 -1.3294 0
M  V30 93 Ba -7.5176 -0.6938 -1.8766 0
M  V30 94 Ba -5.7166 3.5853 3.8708 0
M  V30 95 Ga -4.9219 2.5015 4.4794 0
M  V30 96 Ba -4.1106 1.4090 5.0493 0
M  V30 97 Ba -3.6330 -4.0134 -1.0584 0
M  V30 98 Ga -2.6680 -3.9686 -2.1752 0
M  V30 99 Ba -1.7033 -3.9291 -3.2924 0
M  V30 END ATOM
M  V30 BEGIN BOND
M  V30 1 1 1 2
M  V30 2 1 1 3
M  V30 3 1 1 4
M  V30 4 1 1 5
M  V30 5 1 6 7
M  V30 6 1 6 8
M  V30 7 1 6 9
M  V30 8 1 6 10
M  V30 9 1 11 12
M  V30 10 1 11 13
M  V30 11 1 11 14
M  V30 12 1 11 15
M  V30 13 1 16 17
M  V30 14 1 16 18
M  V30 15 1 16 19
M  V30 16 1 16 20
M  V30 17 1 21 22
M  V30 18 1 21 23
M  V30 19 1 21 24
M  V30 20 1 21 25
M  V30 21 1 26 27
M  V30 22 1 26 28
M  V30 23 1 26 29
M  V30 24 1 26 30
M  V30 25 1 31 32
M  V30 26 1 31 33
M  V30 27 1 31 34
M  V30 28 1 31 35
M  V30 29 1 36 37
M  V30 30 1 36 38
M  V30 31 1 36 39
M  V30 32 1 36 40
M  V30 33 1 41 42
M  V30 34 1 41 43
M  V30 35 1 41 44
M  V30 36 1 41 45
M  V30 37 1 46 47
M  V30 38 1 47 48
M  V30 39 1 49 50
M  V30 40 1 50 51
M  V30 41 1 52 53
M  V30 42 1 53 54
M  V30 43 1 55 56
M  V30 44 1 56 57
M  V30 45 1 58 59
M  V30 46 1 59 60
M  V30 47 1 61 62
M  V30 48 1 62 63
M  V30 49 1 64 65
M  V30 50 1 65 66
M  V30 51 1 67 68
M  V30 52 1 68 69
M  V30 53 1 70 71
M  V30 54 1 71 72
M  V30 55 1 73 74
M  V30 56 1 74 75
M  V30 57 1 76 77
M  V30 58 1 77 78
M  V30 59 1 79 80
M  V30 60 1 80 81
M  V30 61 1 82 83
M  V30 62 1 83 84
M  V30 63 1 85 86
M  V30 64 1 86 87
M  V30 65 1 88 89
M  V30 66 1 89 90
M  V30 67 1 91 92
M  V30 68 1 92 93
M  V30 69 1 94 95
M  V30 70 1 95 96
M  V30 71 1 97 98
M  V30 72 1 98 99
M  V30 73 1 2 73
M  V30 74 1 3 70
M  V30 75 1 4 61
M  V30 76 1 5 64
M  V30 77 1 7 46
M  V30 78 1 8 82
M  V30 79 1 9 58
M  V30 80 1 10 79
M  V30 81 1 12 85
M  V30 82 1 13 97
M  V30 83 1 14 91
M  V30 84 1 15 76
M  V30 85 1 17 93
M  V30 86 1 18 55
M  V30 87 1 19 52
M  V30 88 1 20 88
M  V30 89 1 22 48
M  V30 90 1 23 99
M  V30 91 1 24 54
M  V30 92 1 25 49
M  V30 93 1 27 57
M  V30 94 1 28 94
M  V30 95 1 29 63
M  V30 96 1 30 90
M  V30 97 1 32 75
M  V30 98 1 33 96
M  V30 99 1 34 78
M  V30 100 1 35 87
M  V30 101 1 37 51
M  V30 102 1 38 67
M  V30 103 1 39 60
M  V30 104 1 40 66
M  V30 105 1 42 84
M  V30 106 1 43 72
M  V30 107 1 44 69
M  V30 108 1 45 81
M  V30 END BOND
M  V30 END CTAB
M  END

$$$$
