
     RDKit          3D

  0  0  0  0  0  0  0  0  0  0999 V3000
M  V30 BEGIN CTAB
M  V30 COUNTS 99 108 0 0 0
M  V30 BEGIN ATOM
M  V30 1 Pd -0.0493 -2.2708 2.6279 0
M  V30 2 Pb -0.0217 -2.0665 3.6055 0
M  V30 3 Pb -0.0311 -2.4484 1.6436 0
M  V30 4 Pb -0.9716 -2.6602 2.6907 0
M  V30 5 Pb 0.8644 -1.8790 2.5465 0
M  V30 6 Pd 4.1062 -4.5973 -5.9099 0
M  V30 7 Pb 3.6690 -3.7057 -6.0448 0
M  V30 8 Pb 3.2054 -5.0044 -5.6970 0
M  V30 9 Pb 5.0230 -4.2031 -5.8757 0
M  V30 10 Pb 4.5260 -5.4975 -5.8249 0
M  V30 11 Pd -1.0332 7.2577 1.5818 0
M  V30 12 Pb -1.6861 7.2886 2.3398 0
M  V30 13 Pb -0.3817 7.1545 0.8293 0
M  V30 14 Pb -1.7595 7.3999 0.9103 0
M  V30 15 Pb -0.3394 7.0374 2.2680 0
M  V30 16 Pd -5.8183 2.8981 -1.5401 0
M  V30 17 Pb -5.6417 3.8682 -1.6949 0
M  V30 18 Pb -5.9159 1.9187 -1.2658 0
M  V30 19 Pb -5.1203 2.6823 -2.2229 0
M  V30 20 Pb -6.5297 3.1500 -0.8970 0
M  V30 21 Pd 1.5876 2.7391 -4.2150 0
M  V30 22 Pb 1.6488 1.9145 -4.7796 0
M  V30 23 Pb 1.5540 3.5782 -3.6675 0
M  V30 24 Pb 0.5922 2.7094 -4.3078 0
M  V30 25 Pb 2.5775 2.6987 -4.1026 0
M  V30 26 Pd -5.6637 -0.9346 2.9962 0
M  V30 27 Pb -5.7757 -0.8340 1.9855 0
M  V30 28 Pb -5.5303 -0.9184 3.9861 0
M  V30 29 Pb -4.9856 -1.6679 2.8912 0
M  V30 30 Pb -6.3709 -0.2538 3.1350 0
M  V30 31 Pd -1.6035 3.1419 7.3313 0
M  V30 32 Pb -1.0594 2.3124 7.4294 0
M  V30 33 Pb -2.3960 2.5642 7.5188 0
M  V30 34 Pb -0.8171 3.6776 7.0229 0
M  V30 35 Pb -2.1646 3.9362 7.0998 0
M  V30 36 Pd 6.1551 -2.3444 -1.6495 0
M  V30 37 Pb 6.2344 -1.4510 -2.0869 0
M  V30 38 Pb 6.0199 -3.2059 -1.1494 0
M  V30 39 Pb 6.5267 -2.7479 -2.4928 0
M  V30 40 Pb 5.7705 -1.9073 -0.8399 0
M  V30 41 Pd 2.2406 -5.8466 -1.1854 0
M  V30 42 Pb 1.7570 -5.9722 -2.0631 0
M  V30 43 Pb 1.7358 -4.9899 -1.0567 0
M  V30 44 Pb 2.9246 -5.6397 -0.4875 0
M  V30 45 Pb 2.7168 -6.7113 -1.3259 0
M  V30 46 Ag 3.3013 -3.0647 -6.1848 0
M  V30 47 Fe 2.5318 -0.8797 -5.6524 0
M  V30 48 Ag 1.7118 1.3090 -5.2199 0
M  V30 49 Ag 0.0543 -1.8630 4.3226 0
M  V30 50 Fe -0.2816 -0.1751 5.9562 0
M  V30 51 Ag -0.7300 1.6423 7.4141 0
M  V30 52 Ag 3.3090 2.5819 -4.0079 0
M  V30 53 Fe 4.8806 0.9851 -3.2306 0
M  V30 54 Ag 6.2391 -0.7697 -2.3947 0
M  V30 55 Ag -4.6113 2.5771 -2.7638 0
M  V30 56 Fe -2.3685 2.6064 -3.5456 0
M  V30 57 Ag -0.1481 2.6169 -4.3894 0
M  V30 58 Ag 0.0986 6.8205 2.8374 0
M  V30 59 Fe 0.0698 5.4964 4.8095 0
M  V30 60 Ag -0.2898 4.1013 6.6981 0
M  V30 61 Ag 4.7576 -6.1733 -5.6264 0
M  V30 62 Fe 4.2557 -7.3259 -3.6407 0
M  V30 63 Ag 3.1242 -7.2748 -1.5819 0
M  V30 64 Ag -2.1225 7.2414 2.9489 0
M  V30 65 Fe -2.4554 5.9838 4.9365 0
M  V30 66 Ag -2.5184 4.5339 6.8171 0
M  V30 67 Ag -7.0158 3.2425 -0.3499 0
M  V30 68 Fe -7.3481 2.0240 1.6317 0
M  V30 69 Ag -6.8696 0.2902 3.1445 0
M  V30 70 Ag -2.3065 7.4319 0.3995 0
M  V30 71 Fe -3.9288 6.1334 -0.7467 0
M  V30 72 Ag -5.4436 4.5891 -1.7224 0
M  V30 73 Ag 1.5494 -1.5935 2.4576 0
M  V30 74 Fe 3.5320 -1.5506 1.1569 0
M  V30 75 Ag 5.4523 -1.6085 -0.2336 0
M  V30 76 Ag -5.4349 -0.7884 4.7176 0
M  V30 77 Fe -4.2583 0.5717 6.2669 0
M  V30 78 Ag -2.9397 2.0521 7.5722 0
M  V30 79 Ag 0.0818 7.0475 0.2485 0
M  V30 80 Fe 0.8203 5.6260 -1.5076 0
M  V30 81 Ag 1.5692 4.2163 -3.2689 0
M  V30 82 Ba -5.9770 1.1765 -1.0636 0
M  V30 83 Ga -5.9117 0.2657 0.1283 0
M  V30 84 Ba -5.8739 -0.7606 1.2236 0
M  V30 85 Ba 2.5491 -5.3095 -5.4569 0
M  V30 86 Ga 1.9989 -5.6733 -4.1179 0
M  V30 87 Ba 1.4720 -6.0283 -2.7672 0
M  V30 88 Ba 5.7190 -3.9709 -5.7197 0
M  V30 89 Ga 6.2840 -3.4550 -4.4521 0
M  V30 90 Ba 6.8114 -2.9472 -3.1650 0
M  V30 91 Ba -1.6540 -2.9781 2.7084 0
M  V30 92 Ga -3.0727 -2.5636 2.7766 0
M  V30 93 Ba -4.5190 -2.2583 2.8406 0
M  V30 94 Ba 5.8661 -3.7618 -0.6593 0
M  V30 95 Ga 4.7144 -4.6444 -0.3587 0
M  V30 96 Ba 3.5500 -5.5203 -0.0891 0
M  V30 97 Ba 0.0155 -2.5440 0.9007 0
M  V30 98 Ga 0.6796 -3.4804 -0.0289 0
M  V30 99 Ba 1.3110 -4.3693 -1.0254 0
M  V30 END ATOM
M  V30 BEGIN BOND
M  V30 1 1 1 2
M  V30 2 1 1 3
M  V30 3 1 1 4
M  V30 4 1 1 5
M  V30 5 1 6 7
M  V30 6 1 6 8
M  V30 7 1 6 9
M  V30 8 1 6 10
M  V30 9 1 11 12
M  V30 10 1 11 13
M  V30 11 1 11 14
M  V30 12 1 11 15
M  V30 13 1 16 17
M  V30 14 1 16 18
M  V30 15 1 16 19
M  V30 16 1 16 20
M  V30 17 1 21 22
M  V30 18 1 21 23
M  V30 19 1 21 24
M  V30 20 1 21 25
M  V30 21 1 26 27
M  V30 22 1 26 28
M  V30 23 1 26 29
M  V30 24 1 26 30
M  V30 25 1 31 32
M  V30 26 1 31 33
M  V30 27 1 31 34
M  V30 28 1 31 35
M  V30 29 1 36 37
M  V30 30 1 36 38
M  V30 31 1 36 39
M  V30 32 1 36 40
M  V30 33 1 41 42
M  V30 34 1 41 43
M  V30 35 1 41 44
M  V30 36 1 41 45
M  V30 37 1 46 47
M  V30 38 1 47 48
M  V30 39 1 49 50
M  V30 40 1 50 51
M  V30 41 1 52 53
M  V30 42 1 53 54
M  V30 43 1 55 56
M  V30 44 1 56 57
M  V30 45 1 58 59
M  V30 46 1 59 60
M  V30 47 1 61 62
M  V30 48 1 62 63
M  V30 49 1 64 65
M  V30 50 1 65 66
M  V30 51 1 67 68
M  V30 52 1 68 69
M  V30 53 1 70 71
M  V30 54 1 71 72
M  V30 55 1 73 74
M  V30 56 1 74 75
M  V30 57 1 76 77
M  V30 58 1 77 78
M  V30 59 1 79 80
M  V30 60 1 80 81
M  V30 61 1 82 83
M  V30 62 1 83 84
M  V30 63 1 85 86
M  V30 64 1 86 87
M  V30 65 1 88 89
M  V30 66 1 89 90
M  V30 67 1 91 92
M  V30 68 1 92 93
M  V30 69 1 94 95
M  V30 70 1 95 96
M  V30 71 1 97 98
M  V30 72 1 98 99
M  V30 73 1 2 49
M  V30 74 1 3 97
M  V30 75 1 4 91
M  V30 76 1 5 73
M  V30 77 1 7 46
M  V30 78 1 8 85
M  V30 79 1 9 88
M  V30 80 1 10 61
M  V30 81 1 12 64
M  V30 82 1 13 79
M  V30 83 1 14 70
M  V30 84 1 15 58
M  V30 85 1 17 72
M  V30 86 1 18 82
M  V30 87 1 19 55
M  V30 88 1 20 67
M  V30 89 1 22 48
M  V30 90 1 23 81
M  V30 91 1 24 57
M  V30 92 1 25 52
M  V30 93 1 27 84
M  V30 94 1 28 76
M  V30 95 1 29 93
M  V30 96 1 30 69
M  V30 97 1 32 51
M  V30 98 1 33 78
M  V30 99 1 34 60
M  V30 100 1 35 66
M  V30 101 1 37 54
M  V30 102 1 38 94
M  V30 103 1 39 90
M  V30 104 1 40 75
M  V30 105 1 42 87
M  V30 106 1 43 99
M  V30 107 1 44 96
M  V30 108 1 45 63
M  V30 END BOND
M  V30 END CTAB
M  END

$$$$
