
     RDKit          3D

  0  0  0  0  0  0  0  0  0  0999 V3000
M  V30 BEGIN CTAB
M  V30 COUNTS 99 108 0 0 0
M  V30 BEGIN ATOM
M  V30 1 Pd 1.6833 0.9552 -5.2510 0
M  V30 2 Pb 0.7903 0.6607 -4.9104 0
M  V30 3 Pb 2.5782 1.2428 -5.5821 0
M  V30 4 Pb 1.7265 1.7263 -4.6053 0
M  V30 5 Pb 1.8483 0.0730 -5.6947 0
M  V30 6 Pd 0.6365 -0.4718 5.8122 0
M  V30 7 Pb 1.4951 -1.0033 5.7046 0
M  V30 8 Pb -0.2293 0.0292 5.8375 0
M  V30 9 Pb 0.1406 -1.3247 5.9395 0
M  V30 10 Pb 1.1554 0.3794 5.7255 0
M  V30 11 Pd 5.3571 0.8521 -2.2780 0
M  V30 12 Pb 5.7270 -0.0371 -2.5515 0
M  V30 13 Pb 5.2091 0.5498 -1.3360 0
M  V30 14 Pb 4.7434 1.6424 -2.1669 0
M  V30 15 Pb 5.4997 1.1544 -3.2170 0
M  V30 16 Pd -1.8849 3.8082 -0.7832 0
M  V30 17 Pb -2.2949 3.2108 -1.4785 0
M  V30 18 Pb -1.4299 4.3657 -0.0906 0
M  V30 19 Pb -0.9892 3.5513 -1.1459 0
M  V30 20 Pb -2.7562 4.0877 -0.3680 0
M  V30 21 Pd -5.5511 -2.2114 -1.6954 0
M  V30 22 Pb -4.8008 -2.8120 -1.4173 0
M  V30 23 Pb -5.9605 -2.2457 -0.7675 0
M  V30 24 Pb -5.0412 -1.8670 -2.4774 0
M  V30 25 Pb -6.3313 -1.6919 -2.0247 0
M  V30 26 Pd -5.9890 1.7499 2.1394 0
M  V30 27 Pb -5.6999 2.6977 2.0147 0
M  V30 28 Pb -5.3051 1.6170 2.8613 0
M  V30 29 Pb -6.7233 1.9433 1.4994 0
M  V30 30 Pb -6.2121 0.7554 2.0873 0
M  V30 31 Pd 2.4678 2.7645 1.8071 0
M  V30 32 Pb 2.3252 2.7701 0.8177 0
M  V30 33 Pb 1.8633 3.5562 1.8852 0
M  V30 34 Pb 2.5722 2.7502 2.8005 0
M  V30 35 Pb 3.0713 1.9725 1.7172 0
M  V30 36 Pd 0.0757 -3.1164 -2.1746 0
M  V30 37 Pb -0.7811 -3.5248 -1.8590 0
M  V30 38 Pb 0.9479 -2.6905 -2.4009 0
M  V30 39 Pb -0.4196 -2.3753 -2.6271 0
M  V30 40 Pb 0.5909 -3.8571 -1.7157 0
M  V30 41 Pd 3.2201 -4.3662 2.4381 0
M  V30 42 Pb 2.9179 -4.8172 1.5880 0
M  V30 43 Pb 3.8317 -3.8016 1.8896 0
M  V30 44 Pb 2.5654 -4.9076 2.9554 0
M  V30 45 Pb 3.4054 -3.8196 3.2711 0
M  V30 46 Ag 2.2082 -0.5705 -5.8186 0
M  V30 47 Fe 4.1491 -1.1834 -4.6105 0
M  V30 48 Ag 5.7520 -0.6718 -2.9458 0
M  V30 49 Ag -0.8937 0.3787 5.8224 0
M  V30 50 Fe -2.8486 0.9601 4.6002 0
M  V30 51 Ag -4.8331 1.5811 3.4475 0
M  V30 52 Ag -6.8901 -1.2296 -2.1636 0
M  V30 53 Fe -7.5734 0.6349 -0.9140 0
M  V30 54 Ag -7.2328 1.9956 0.9671 0
M  V30 55 Ag 1.6439 -2.4311 -2.3889 0
M  V30 56 Fe 3.2888 -2.6533 -0.7112 0
M  V30 57 Ag 4.1500 -3.3897 1.3591 0
M  V30 58 Ag -2.5077 2.7191 -2.0103 0
M  V30 59 Fe -3.5421 0.6673 -2.6206 0
M  V30 60 Ag -4.6636 -1.4056 -2.9273 0
M  V30 61 Ag -0.1131 -2.0204 5.9640 0
M  V30 62 Fe 0.6239 -3.9682 4.8647 0
M  V30 63 Ag 2.0180 -5.1580 3.3864 0
M  V30 64 Ba -4.2779 -3.3165 -1.2288 0
M  V30 65 Ga -2.8317 -3.5395 -1.4196 0
M  V30 66 Ba -1.3943 -3.8411 -1.5639 0
M  V30 67 Ba -0.3056 3.3620 -1.3892 0
M  V30 68 Ga 0.9549 3.0648 -0.6839 0
M  V30 69 Ba 2.1822 2.7787 0.0819 0
M  V30 70 Ba 0.1219 0.4341 -4.6559 0
M  V30 71 Ga -0.3377 -0.6856 -3.8133 0
M  V30 72 Ba -0.7771 -1.8120 -2.9688 0
M  V30 73 Ba -1.0693 4.7564 0.4365 0
M  V30 74 Ga 0.1622 4.4812 1.1969 0
M  V30 75 Ba 1.4000 4.1438 1.9212 0
M  V30 76 Ba 3.2711 1.4437 -5.7718 0
M  V30 77 Ga 4.4681 1.4417 -4.9221 0
M  V30 78 Ba 5.5468 1.3730 -3.9289 0
M  V30 79 Ba 1.5680 1.0052 5.6842 0
M  V30 80 Ga 2.0934 1.8710 4.6119 0
M  V30 81 Ba 2.6235 2.7439 3.5478 0
M  V30 82 Ba 0.9858 -4.4306 -1.4059 0
M  V30 83 Ga 1.8182 -4.7409 -0.2115 0
M  V30 84 Ba 2.6621 -5.1374 0.9491 0
M  V30 85 Ba 1.8860 2.2391 -4.0683 0
M  V30 86 Ga 3.0227 2.2659 -3.1039 0
M  V30 87 Ba 4.2024 2.1747 -2.1968 0
M  V30 88 Ba 2.1485 -1.3947 5.6302 0
M  V30 89 Ga 2.7929 -2.4005 4.7338 0
M  V30 90 Ba 3.5221 -3.4022 3.8999 0
M  V30 91 Ba -3.3472 4.3619 0.0144 0
M  V30 92 Ga -4.4143 3.8694 0.9126 0
M  V30 93 Ba -5.4882 3.3866 1.8080 0
M  V30 94 Ba 5.0997 0.3292 -0.6273 0
M  V30 95 Ga 4.3142 0.8471 0.5087 0
M  V30 96 Ba 3.5225 1.3796 1.6335 0
M  V30 97 Ba -6.2242 -2.1742 -0.0500 0
M  V30 98 Ga -6.2953 -1.0668 0.9611 0
M  V30 99 Ba -6.3875 0.0088 2.0044 0
M  V30 END ATOM
M  V30 BEGIN BOND
M  V30 1 1 1 2
M  V30 2 1 1 3
M  V30 3 1 1 4
M  V30 4 1 1 5
M  V30 5 1 6 7
M  V30 6 1 6 8
M  V30 7 1 6 9
M  V30 8 1 6 10
M  V30 9 1 11 12
M  V30 10 1 11 13
M  V30 11 1 11 14
M  V30 12 1 11 15
M  V30 13 1 16 17
M  V30 14 1 16 18
M  V30 15 1 16 19
M  V30 16 1 16 20
M  V30 17 1 21 22
M  V30 18 1 21 23
M  V30 19 1 21 24
M  V30 20 1 21 25
M  V30 21 1 26 27
M  V30 22 1 26 28
M  V30 23 1 26 29
M  V30 24 1 26 30
M  V30 25 1 31 32
M  V30 26 1 31 33
M  V30 27 1 31 34
M  V30 28 1 31 35
M  V30 29 1 36 37
M  V30 30 1 36 38
M  V30 31 1 36 39
M  V30 32 1 36 40
M  V30 33 1 41 42
M  V30 34 1 41 43
M  V30 35 1 41 44
M  V30 36 1 41 45
M  V30 37 1 46 47
M  V30 38 1 47 48
M  V30 39 1 49 50
M  V30 40 1 50 51
M  V30 41 1 52 53
M  V30 42 1 53 54
M  V30 43 1 55 56
M  V30 44 1 56 57
M  V30 45 1 58 59
M  V30 46 1 59 60
M  V30 47 1 61 62
M  V30 48 1 62 63
M  V30 49 1 64 65
M  V30 50 1 65 66
M  V30 51 1 67 68
M  V30 52 1 68 69
M  V30 53 1 70 71
M  V30 54 1 71 72
M  V30 55 1 73 74
M  V30 56 1 74 75
M  V30 57 1 76 77
M  V30 58 1 77 78
M  V30 59 1 79 80
M  V30 60 1 80 81
M  V30 61 1 82 83
M  V30 62 1 83 84
M  V30 63 1 85 86
M  V30 64 1 86 87
M  V30 65 1 88 89
M  V30 66 1 89 90
M  V30 67 1 91 92
M  V30 68 1 92 93
M  V30 69 1 94 95
M  V30 70 1 95 96
M  V30 71 1 97 98
M  V30 72 1 98 99
M  V30 73 1 2 70
M  V30 74 1 3 76
M  V30 75 1 4 85
M  V30 76 1 5 46
M  V30 77 1 7 88
M  V30 78 1 8 49
M  V30 79 1 9 61
M  V30 80 1 10 79
M  V30 81 1 12 48
M  V30 82 1 13 94
M  V30 83 1 14 87
M  V30 84 1 15 78
M  V30 85 1 17 58
M  V30 86 1 18 73
M  V30 87 1 19 67
M  V30 88 1 20 91
M  V30 89 1 22 64
M  V30 90 1 23 97
M  V30 91 1 24 60
M  V30 92 1 25 52
M  V30 93 1 27 93
M  V30 94 1 28 51
M  V30 95 1 29 54
M  V30 96 1 30 99
M  V30 97 1 32 69
M  V30 98 1 33 75
M  V30 99 1 34 81
M  V30 100 1 35 96
M  V30 101 1 37 66
M  V30 102 1 38 55
M  V30 103 1 39 72
M  V30 104 1 40 82
M  V30 105 1 42 84
M  V30 106 1 43 57
M  V30 107 1 44 63
M  V30 108 1 45 90
M  V30 END BOND
M  V30 END CTAB
M  END

$$$$
