
     RDKit          3D

  0  0  0  0  0  0  0  0  0  0999 V3000
M  V30 BEGIN CTAB
M  V30 COUNTS 99 108 0 0 0
M  V30 BEGIN ATOM
M  V30 1 Pd 1.2267 4.8065 2.8823 0
M  V30 2 Pb 1.3513 5.1252 1.9437 0
M  V30 3 Pb 1.1133 4.5941 3.8515 0
M  V30 4 Pb 0.2571 5.0314 2.7925 0
M  V30 5 Pb 2.1780 4.4963 2.9269 0
M  V30 6 Pd 0.6984 -4.2052 5.5020 0
M  V30 7 Pb 0.1371 -4.2549 4.6787 0
M  V30 8 Pb 1.2568 -4.0804 6.3318 0
M  V30 9 Pb 1.5307 -4.1570 4.9489 0
M  V30 10 Pb -0.1176 -4.1763 6.0750 0
M  V30 11 Pd 0.3245 -1.3448 -6.7975 0
M  V30 12 Pb 1.2114 -0.9917 -6.5388 0
M  V30 13 Pb 0.6858 -2.2553 -6.6073 0
M  V30 14 Pb -0.5270 -1.7640 -7.1205 0
M  V30 15 Pb -0.0369 -0.3895 -6.8943 0
M  V30 16 Pd -4.2326 -3.0407 -4.6715 0
M  V30 17 Pb -3.8887 -3.2367 -5.5865 0
M  V30 18 Pb -4.5055 -2.7265 -3.7579 0
M  V30 19 Pb -3.8665 -3.9044 -4.3235 0
M  V30 20 Pb -4.5822 -2.1794 -5.0215 0
M  V30 21 Pd 0.2460 -4.1210 -2.2386 0
M  V30 22 Pb -0.1940 -4.0837 -1.3436 0
M  V30 23 Pb 0.6801 -4.2135 -3.1366 0
M  V30 24 Pb -0.4616 -4.7623 -2.5311 0
M  V30 25 Pb 0.9081 -3.4257 -1.9466 0
M  V30 26 Pd -4.4608 3.6143 -1.9728 0
M  V30 27 Pb -4.6875 2.7347 -1.5448 0
M  V30 28 Pb -4.1659 4.4189 -2.4844 0
M  V30 29 Pb -4.1773 4.0196 -1.1019 0
M  V30 30 Pb -4.7487 3.2147 -2.8354 0
M  V30 31 Pd 0.0706 4.3496 -4.7238 0
M  V30 32 Pb 0.3904 4.9541 -3.9984 0
M  V30 33 Pb -0.8333 4.7800 -4.6612 0
M  V30 34 Pb -0.2300 3.6545 -5.4158 0
M  V30 35 Pb 0.9948 3.9997 -4.7650 0
M  V30 36 Pd 3.9178 -0.1244 3.4048 0
M  V30 37 Pb 3.6687 -0.2529 2.4411 0
M  V30 38 Pb 4.2254 -0.0030 4.3531 0
M  V30 39 Pb 3.8510 -1.1203 3.5174 0
M  V30 40 Pb 4.0456 0.8641 3.2696 0
M  V30 41 Pd 2.1061 0.0218 8.6966 0
M  V30 42 Pb 2.3113 -0.9628 8.7242 0
M  V30 43 Pb 1.8487 0.9732 8.5528 0
M  V30 44 Pb 2.9774 0.1802 8.2309 0
M  V30 45 Pb 1.2132 -0.1761 9.0948 0
M  V30 46 Ag -0.2813 -4.2486 4.0589 0
M  V30 47 Fe -0.4148 -4.1745 1.6912 0
M  V30 48 Ag -0.5337 -4.0998 -0.6772 0
M  V30 49 Ag 1.4142 5.4274 1.2610 0
M  V30 50 Fe 1.0458 5.4056 -1.0832 0
M  V30 51 Ag 0.6633 5.3468 -3.4244 0
M  V30 52 Ag 1.3685 -2.8725 -1.7228 0
M  V30 53 Fe 2.4375 -1.6348 0.0052 0
M  V30 54 Ag 3.5186 -0.3803 1.7135 0
M  V30 55 Ag -4.6840 -2.3785 -3.1124 0
M  V30 56 Fe -4.8034 -0.2287 -2.0954 0
M  V30 57 Ag -4.8296 2.0256 -1.3287 0
M  V30 58 Ag -0.6276 -4.0007 6.5861 0
M  V30 59 Fe -0.5276 -2.2814 8.1973 0
M  V30 60 Ag 0.5479 -0.4670 9.2526 0
M  V30 61 Ag 1.8309 -0.6502 -6.3358 0
M  V30 62 Fe 2.2626 1.5053 -5.5130 0
M  V30 63 Ag 1.6455 3.6599 -4.8158 0
M  V30 64 Ag -4.8189 -1.5070 -5.2298 0
M  V30 65 Fe -4.9624 0.7356 -4.4921 0
M  V30 66 Ag -4.9495 2.8626 -3.4579 0
M  V30 67 Ag -0.4700 5.1548 2.6595 0
M  V30 68 Fe -2.2546 4.7727 1.1387 0
M  V30 69 Ag -3.9627 4.3297 -0.4519 0
M  V30 70 Ag 1.0566 4.4822 4.5898 0
M  V30 71 Fe 1.3277 3.1137 6.5084 0
M  V30 72 Ag 1.6338 1.6606 8.3581 0
M  V30 73 Ba -3.5738 -4.5504 -4.0778 0
M  V30 74 Ga -2.3069 -4.9068 -3.4128 0
M  V30 75 Ba -1.0248 -5.2053 -2.7485 0
M  V30 76 Ba -0.3261 0.3249 -6.9816 0
M  V30 77 Ga -0.3360 1.7117 -6.3966 0
M  V30 78 Ba -0.4627 3.1437 -5.9508 0
M  V30 79 Ba 1.6720 -3.9762 6.9573 0
M  V30 80 Ga 2.0524 -2.8338 7.8265 0
M  V30 81 Ba 2.4459 -1.7072 8.7102 0
M  V30 82 Ba -1.1195 -2.1447 -7.3871 0
M  V30 83 Ga -2.3640 -2.7234 -6.8446 0
M  V30 84 Ba -3.6033 -3.2871 -6.2754 0
M  V30 85 Ba 2.1691 -4.0950 4.5589 0
M  V30 86 Ga 2.9842 -2.9657 4.0624 0
M  V30 87 Ba 3.8369 -1.8741 3.5455 0
M  V30 88 Ba 2.8835 4.2367 2.9453 0
M  V30 89 Ga 3.5125 2.9025 3.0684 0
M  V30 90 Ba 4.2031 1.5987 3.1865 0
M  V30 91 Ba 4.5041 0.1206 5.0432 0
M  V30 92 Ga 4.0391 0.1906 6.4449 0
M  V30 93 Ba 3.6248 0.2711 7.8619 0
M  V30 94 Ba -3.9243 4.9584 -2.9439 0
M  V30 95 Ga -2.6992 5.0742 -3.7607 0
M  V30 96 Ba -1.4703 5.1731 -4.5740 0
M  V30 97 Ba 0.9771 -2.9138 -6.4044 0
M  V30 98 Ga 0.9838 -3.6312 -5.1155 0
M  V30 99 Ba 0.9793 -4.3305 -3.8165 0
M  V30 END ATOM
M  V30 BEGIN BOND
M  V30 1 1 1 2
M  V30 2 1 1 3
M  V30 3 1 1 4
M  V30 4 1 1 5
M  V30 5 1 6 7
M  V30 6 1 6 8
M  V30 7 1 6 9
M  V30 8 1 6 10
M  V30 9 1 11 12
M  V30 10 1 11 13
M  V30 11 1 11 14
M  V30 12 1 11 15
M  V30 13 1 16 17
M  V30 14 1 16 18
M  V30 15 1 16 19
M  V30 16 1 16 20
M  V30 17 1 21 22
M  V30 18 1 21 23
M  V30 19 1 21 24
M  V30 20 1 21 25
M  V30 21 1 26 27
M  V30 22 1 26 28
M  V30 23 1 26 29
M  V30 24 1 26 30
M  V30 25 1 31 32
M  V30 26 1 31 33
M  V30 27 1 31 34
M  V30 28 1 31 35
M  V30 29 1 36 37
M  V30 30 1 36 38
M  V30 31 1 36 39
M  V30 32 1 36 40
M  V30 33 1 41 42
M  V30 34 1 41 43
M  V30 35 1 41 44
M  V30 36 1 41 45
M  V30 37 1 46 47
M  V30 38 1 47 48
M  V30 39 1 49 50
M  V30 40 1 50 51
M  V30 41 1 52 53
M  V30 42 1 53 54
M  V30 43 1 55 56
M  V30 44 1 56 57
M  V30 45 1 58 59
M  V30 46 1 59 60
M  V30 47 1 61 62
M  V30 48 1 62 63
M  V30 49 1 64 65
M  V30 50 1 65 66
M  V30 51 1 67 68
M  V30 52 1 68 69
M  V30 53 1 70 71
M  V30 54 1 71 72
M  V30 55 1 73 74
M  V30 56 1 74 75
M  V30 57 1 76 77
M  V30 58 1 77 78
M  V30 59 1 79 80
M  V30 60 1 80 81
M  V30 61 1 82 83
M  V30 62 1 83 84
M  V30 63 1 85 86
M  V30 64 1 86 87
M  V30 65 1 88 89
M  V30 66 1 89 90
M  V30 67 1 91 92
M  V30 68 1 92 93
M  V30 69 1 94 95
M  V30 70 1 95 96
M  V30 71 1 97 98
M  V30 72 1 98 99
M  V30 73 1 2 49
M  V30 74 1 3 70
M  V30 75 1 4 67
M  V30 76 1 5 88
M  V30 77 1 7 46
M  V30 78 1 8 79
M  V30 79 1 9 85
M  V30 80 1 10 58
M  V30 81 1 12 61
M  V30 82 1 13 97
M  V30 83 1 14 82
M  V30 84 1 15 76
M  V30 85 1 17 84
M  V30 86 1 18 55
M  V30 87 1 19 73
M  V30 88 1 20 64
M  V30 89 1 22 48
M  V30 90 1 23 99
M  V30 91 1 24 75
M  V30 92 1 25 52
M  V30 93 1 27 57
M  V30 94 1 28 94
M  V30 95 1 29 69
M  V30 96 1 30 66
M  V30 97 1 32 51
M  V30 98 1 33 96
M  V30 99 1 34 78
M  V30 100 1 35 63
M  V30 101 1 37 54
M  V30 102 1 38 91
M  V30 103 1 39 87
M  V30 104 1 40 90
M  V30 105 1 42 81
M  V30 106 1 43 72
M  V30 107 1 44 93
M  V30 108 1 45 60
M  V30 END BOND
M  V30 END CTAB
M  END

$$$$
