
     RDKit          3D

  0  0  0  0  0  0  0  0  0  0999 V3000
M  V30 BEGIN CTAB
M  V30 COUNTS 99 108 0 0 0
M  V30 BEGIN ATOM
M  V30 1 Pd -2.4438 0.0797 5.5519 0
M  V30 2 Pb -2.2230 0.8132 6.2073 0
M  V30 3 Pb -1.4808 -0.1578 5.5735 0
M  V30 4 Pb -3.4402 0.2330 5.5868 0
M  V30 5 Pb -2.6144 -0.6719 4.8822 0
M  V30 6 Pd -6.2479 2.3363 2.6445 0
M  V30 7 Pb -5.8013 2.9849 2.0253 0
M  V30 8 Pb -6.3293 3.0780 3.2985 0
M  V30 9 Pb -6.4450 1.7011 3.3882 0
M  V30 10 Pb -6.1635 1.5780 2.0020 0
M  V30 11 Pd -4.0281 0.6340 -2.4272 0
M  V30 12 Pb -4.5488 0.4107 -1.6045 0
M  V30 13 Pb -3.8754 1.5671 -2.0973 0
M  V30 14 Pb -4.0772 -0.3394 -2.6366 0
M  V30 15 Pb -3.5341 0.8135 -3.2807 0
M  V30 16 Pd 5.0756 -2.7571 -6.0787 0
M  V30 17 Pb 4.9937 -1.8917 -5.5841 0
M  V30 18 Pb 5.2314 -3.7553 -6.1582 0
M  V30 19 Pb 6.0568 -2.6007 -6.1784 0
M  V30 20 Pb 4.0900 -2.9018 -5.9895 0
M  V30 21 Pd 1.1496 0.4571 -4.5119 0
M  V30 22 Pb 1.1641 1.4076 -4.1698 0
M  V30 23 Pb 1.1476 -0.4874 -4.8407 0
M  V30 24 Pb 2.0766 0.3463 -4.1641 0
M  V30 25 Pb 0.2168 0.6018 -4.8452 0
M  V30 26 Pd 1.7583 3.9612 0.1640 0
M  V30 27 Pb 2.6731 3.5863 0.0452 0
M  V30 28 Pb 1.6271 3.9106 -0.8364 0
M  V30 29 Pb 0.8016 4.2466 0.2197 0
M  V30 30 Pb 1.8992 3.9795 1.1548 0
M  V30 31 Pd -0.7933 4.9939 5.0609 0
M  V30 32 Pb 0.0968 4.6786 4.7366 0
M  V30 33 Pb -0.7113 4.4848 5.9175 0
M  V30 34 Pb -1.0536 5.3086 4.1456 0
M  V30 35 Pb -1.6755 5.3190 5.3784 0
M  V30 36 Pd 6.1755 -5.4332 -1.9755 0
M  V30 37 Pb 6.1207 -5.8948 -2.8761 0
M  V30 38 Pb 6.1136 -4.6511 -1.3553 0
M  V30 39 Pb 7.1315 -5.2067 -2.1545 0
M  V30 40 Pb 5.2245 -5.6772 -1.7855 0
M  V30 41 Pd -0.7832 -4.2181 1.4424 0
M  V30 42 Pb -0.0727 -4.0786 2.1205 0
M  V30 43 Pb -0.1482 -4.7503 0.8823 0
M  V30 44 Pb -1.4384 -3.6764 2.0088 0
M  V30 45 Pb -1.4600 -4.2885 0.7099 0
M  V30 46 Ag -5.3349 3.4893 1.7173 0
M  V30 47 Fe -3.3344 4.5972 2.3759 0
M  V30 48 Ag -1.3947 5.4189 3.4830 0
M  V30 49 Ag 4.5164 -5.8777 -1.6407 0
M  V30 50 Fe 2.4228 -5.4964 -0.5863 0
M  V30 51 Ag 0.3134 -5.1535 0.4500 0
M  V30 52 Ag -4.0574 -1.0859 -2.6419 0
M  V30 53 Fe -3.0739 -2.8273 -1.3659 0
M  V30 54 Ag -1.9298 -4.2746 0.1261 0
M  V30 55 Ag 5.0038 -1.4591 -4.9717 0
M  V30 56 Fe 5.4648 -2.2540 -2.7821 0
M  V30 57 Ag 6.0027 -3.9288 -1.1870 0
M  V30 58 Ag -0.8015 -0.4492 5.5501 0
M  V30 59 Fe 0.2061 -2.1575 4.2795 0
M  V30 60 Ag 0.3939 -3.8385 2.6407 0
M  V30 61 Ag 2.7292 0.3851 -3.8103 0
M  V30 62 Fe 3.4528 1.6566 -1.9577 0
M  V30 63 Ag 3.2640 3.1982 -0.1807 0
M  V30 64 Ag -3.6936 2.2198 -1.7720 0
M  V30 65 Fe -1.9029 3.4251 -0.7776 0
M  V30 66 Ag 0.0682 4.3842 0.1401 0
M  V30 67 Ag 6.7944 -2.5839 -6.0972 0
M  V30 68 Fe 7.9846 -3.6315 -4.3629 0
M  V30 69 Ag 7.7717 -4.9530 -2.4315 0
M  V30 70 Ag -6.2768 3.6249 3.7946 0
M  V30 71 Fe -4.5188 4.7774 4.8656 0
M  V30 72 Ag -2.3757 5.4959 5.5415 0
M  V30 73 Ba 2.0580 3.9610 1.8886 0
M  V30 74 Ga 1.3885 4.2154 3.1777 0
M  V30 75 Ba 0.7689 4.4555 4.4942 0
M  V30 76 Ba -4.1987 0.2494 5.6160 0
M  V30 77 Ga -5.3396 0.7542 4.8159 0
M  V30 78 Ba -6.4653 1.2744 4.0042 0
M  V30 79 Ba -1.9652 1.3277 6.7018 0
M  V30 80 Ga -1.3677 2.6838 6.6337 0
M  V30 81 Ba -0.7819 4.0419 6.5209 0
M  V30 82 Ba -3.1943 0.9177 -3.9437 0
M  V30 83 Ga -1.8270 0.8267 -4.4958 0
M  V30 84 Ba -0.4775 0.7483 -5.0917 0
M  V30 85 Ba 1.1823 2.1344 -3.9485 0
M  V30 86 Ga 1.3559 2.9650 -2.7271 0
M  V30 87 Ba 1.5150 3.9079 -1.5880 0
M  V30 88 Ba -6.1178 0.9829 1.5519 0
M  V30 89 Ga -5.5138 0.6277 0.2562 0
M  V30 90 Ba -4.9549 0.1639 -1.0252 0
M  V30 91 Ba 5.3757 -4.5039 -6.0651 0
M  V30 92 Ga 5.7108 -5.3271 -4.8540 0
M  V30 93 Ba 6.0426 -6.1031 -3.6112 0
M  V30 94 Ba 3.3479 -2.9915 -5.9266 0
M  V30 95 Ga 2.2453 -2.1065 -5.5058 0
M  V30 96 Ba 1.1640 -1.1982 -5.0797 0
M  V30 97 Ba -2.8061 -1.2324 4.3901 0
M  V30 98 Ga -2.2860 -2.2413 3.4119 0
M  V30 99 Ba -1.9886 -3.3090 2.4038 0
M  V30 END ATOM
M  V30 BEGIN BOND
M  V30 1 1 1 2
M  V30 2 1 1 3
M  V30 3 1 1 4
M  V30 4 1 1 5
M  V30 5 1 6 7
M  V30 6 1 6 8
M  V30 7 1 6 9
M  V30 8 1 6 10
M  V30 9 1 11 12
M  V30 10 1 11 13
M  V30 11 1 11 14
M  V30 12 1 11 15
M  V30 13 1 16 17
M  V30 14 1 16 18
M  V30 15 1 16 19
M  V30 16 1 16 20
M  V30 17 1 21 22
M  V30 18 1 21 23
M  V30 19 1 21 24
M  V30 20 1 21 25
M  V30 21 1 26 27
M  V30 22 1 26 28
M  V30 23 1 26 29
M  V30 24 1 26 30
M  V30 25 1 31 32
M  V30 26 1 31 33
M  V30 27 1 31 34
M  V30 28 1 31 35
M  V30 29 1 36 37
M  V30 30 1 36 38
M  V30 31 1 36 39
M  V30 32 1 36 40
M  V30 33 1 41 42
M  V30 34 1 41 43
M  V30 35 1 41 44
M  V30 36 1 41 45
M  V30 37 1 46 47
M  V30 38 1 47 48
M  V30 39 1 49 50
M  V30 40 1 50 51
M  V30 41 1 52 53
M  V30 42 1 53 54
M  V30 43 1 55 56
M  V30 44 1 56 57
M  V30 45 1 58 59
M  V30 46 1 59 60
M  V30 47 1 61 62
M  V30 48 1 62 63
M  V30 49 1 64 65
M  V30 50 1 65 66
M  V30 51 1 67 68
M  V30 52 1 68 69
M  V30 53 1 70 71
M  V30 54 1 71 72
M  V30 55 1 73 74
M  V30 56 1 74 75
M  V30 57 1 76 77
M  V30 58 1 77 78
M  V30 59 1 79 80
M  V30 60 1 80 81
M  V30 61 1 82 83
M  V30 62 1 83 84
M  V30 63 1 85 86
M  V30 64 1 86 87
M  V30 65 1 88 89
M  V30 66 1 89 90
M  V30 67 1 91 92
M  V30 68 1 92 93
M  V30 69 1 94 95
M  V30 70 1 95 96
M  V30 71 1 97 98
M  V30 72 1 98 99
M  V30 73 1 2 79
M  V30 74 1 3 58
M  V30 75 1 4 76
M  V30 76 1 5 97
M  V30 77 1 7 46
M  V30 78 1 8 70
M  V30 79 1 9 78
M  V30 80 1 10 88
M  V30 81 1 12 90
M  V30 82 1 13 64
M  V30 83 1 14 52
M  V30 84 1 15 82
M  V30 85 1 17 55
M  V30 86 1 18 91
M  V30 87 1 19 67
M  V30 88 1 20 94
M  V30 89 1 22 85
M  V30 90 1 23 96
M  V30 91 1 24 61
M  V30 92 1 25 84
M  V30 93 1 27 63
M  V30 94 1 28 87
M  V30 95 1 29 66
M  V30 96 1 30 73
M  V30 97 1 32 75
M  V30 98 1 33 81
M  V30 99 1 34 48
M  V30 100 1 35 72
M  V30 101 1 37 93
M  V30 102 1 38 57
M  V30 103 1 39 69
M  V30 104 1 40 49
M  V30 105 1 42 60
M  V30 106 1 43 51
M  V30 107 1 44 99
M  V30 108 1 45 54
M  V30 END BOND
M  V30 END CTAB
M  END

$$$$
