
     RDKit          3D

  0  0  0  0  0  0  0  0  0  0999 V3000
M  V30 BEGIN CTAB
M  V30 COUNTS 99 108 0 0 0
M  V30 BEGIN ATOM
M  V30 1 Pd -0.6384 4.5899 -1.2317 0
M  V30 2 Pb -1.0122 3.8253 -0.7090 0
M  V30 3 Pb -0.2162 5.3510 -1.7231 0
M  V30 4 Pb -0.7235 4.0811 -2.0906 0
M  V30 5 Pb -0.5873 5.1038 -0.3761 0
M  V30 6 Pd 5.9357 2.1487 -0.3210 0
M  V30 7 Pb 5.3088 1.3749 -0.3988 0
M  V30 8 Pb 5.8282 2.3630 -1.2951 0
M  V30 9 Pb 5.9600 2.0591 0.6737 0
M  V30 10 Pb 6.5657 2.9143 -0.2448 0
M  V30 11 Pd -4.1465 -5.2532 3.7965 0
M  V30 12 Pb -5.0779 -5.4257 3.4920 0
M  V30 13 Pb -3.2266 -5.1100 4.1737 0
M  V30 14 Pb -3.8664 -6.0725 3.2999 0
M  V30 15 Pb -4.4480 -4.3461 4.1312 0
M  V30 16 Pd -0.8544 -7.0110 -2.7924 0
M  V30 17 Pb -1.4744 -7.2868 -2.0567 0
M  V30 18 Pb -1.5889 -6.5749 -3.3473 0
M  V30 19 Pb -0.1211 -7.2725 -2.1714 0
M  V30 20 Pb -0.1979 -6.7729 -3.4986 0
M  V30 21 Pd 1.0645 -3.1265 2.8344 0
M  V30 22 Pb 1.5587 -2.6990 2.0781 0
M  V30 23 Pb 0.5388 -3.5671 3.5641 0
M  V30 24 Pb 1.2965 -4.0215 2.4543 0
M  V30 25 Pb 0.8569 -2.2191 3.2032 0
M  V30 26 Pd -2.4803 -1.8492 -5.1161 0
M  V30 27 Pb -2.7307 -2.8304 -4.9817 0
M  V30 28 Pb -3.3107 -1.5296 -4.6590 0
M  V30 29 Pb -2.1864 -0.8956 -5.1892 0
M  V30 30 Pb -1.6539 -2.1375 -5.5857 0
M  V30 31 Pd -6.0574 -0.5378 1.4187 0
M  V30 32 Pb -5.1707 -0.0795 1.4174 0
M  V30 33 Pb -6.1722 -0.3183 0.4521 0
M  V30 34 Pb -5.8745 -0.8867 2.3537 0
M  V30 35 Pb -6.9107 -1.0498 1.3990 0
M  V30 36 Pd 2.6770 4.5128 2.9558 0
M  V30 37 Pb 2.1613 3.7036 3.2459 0
M  V30 38 Pb 3.1517 5.3547 2.6836 0
M  V30 39 Pb 3.5269 4.0009 3.1058 0
M  V30 40 Pb 1.8249 5.0047 2.7860 0
M  V30 41 Pd 4.4792 6.5245 -1.5694 0
M  V30 42 Pb 4.6510 5.8734 -2.3111 0
M  V30 43 Pb 3.5666 6.7365 -1.9254 0
M  V30 44 Pb 4.3161 7.0356 -0.7276 0
M  V30 45 Pb 5.4007 6.3505 -1.2353 0
M  V30 46 Ag 4.8439 0.7908 -0.4594 0
M  V30 47 Fe 3.3816 -0.7926 0.5361 0
M  V30 48 Ag 1.9121 -2.3936 1.4919 0
M  V30 49 Ag -1.2563 3.2722 -0.2673 0
M  V30 50 Fe -2.9078 1.7691 0.5366 0
M  V30 51 Ag -4.4887 0.2279 1.4076 0
M  V30 52 Ag 0.7194 -1.5281 3.4643 0
M  V30 53 Fe 1.2466 0.7899 3.4662 0
M  V30 54 Ag 1.7611 3.1107 3.4797 0
M  V30 55 Ag 0.3731 -7.3453 -1.6177 0
M  V30 56 Fe 1.0441 -6.1295 0.3050 0
M  V30 57 Ag 1.4711 -4.6736 2.1286 0
M  V30 58 Ag -5.7807 -5.4298 3.2554 0
M  V30 59 Fe -7.1159 -3.7572 2.2754 0
M  V30 60 Ag -7.4250 -1.5798 1.4392 0
M  V30 61 Ag 0.2160 -6.4857 -4.0400 0
M  V30 62 Fe -0.0045 -4.4912 -5.2692 0
M  V30 63 Ag -1.0457 -2.4631 -5.8519 0
M  V30 64 Ag -3.7127 -6.6271 2.8205 0
M  V30 65 Fe -2.7877 -7.1362 0.6926 0
M  V30 66 Ag -1.8425 -7.5344 -1.4502 0
M  V30 67 Ag -0.8005 3.7170 -2.7439 0
M  V30 68 Fe -1.3735 1.7727 -3.9846 0
M  V30 69 Ag -1.9509 -0.1830 -5.2050 0
M  V30 70 Ag -3.9143 -1.2367 -4.3228 0
M  V30 71 Fe -5.1072 -0.7081 -2.3390 0
M  V30 72 Ag -6.2108 -0.2362 -0.2906 0
M  V30 73 Ba -2.1370 -6.2225 -3.7556 0
M  V30 74 Ga -2.4764 -4.8677 -4.3025 0
M  V30 75 Ba -2.9322 -3.5703 -4.9009 0
M  V30 76 Ba -4.6911 -3.6530 4.3397 0
M  V30 77 Ga -5.2036 -2.4225 3.6654 0
M  V30 78 Ba -5.7224 -1.1641 3.0502 0
M  V30 79 Ba 6.9949 3.5208 -0.2088 0
M  V30 80 Ga 6.6252 4.8909 -0.5727 0
M  V30 81 Ba 6.0822 6.1889 -0.9814 0
M  V30 82 Ba 5.7179 2.6105 -1.9983 0
M  V30 83 Ga 5.2672 3.9407 -2.4658 0
M  V30 84 Ba 4.8099 5.3116 -2.7860 0
M  V30 85 Ba 5.9477 2.0822 1.4229 0
M  V30 86 Ga 5.0555 2.8150 2.3450 0
M  V30 87 Ba 4.1346 3.5700 3.2199 0
M  V30 88 Ba -0.5707 5.4696 0.2779 0
M  V30 89 Ga 0.3082 5.4378 1.4601 0
M  V30 90 Ba 1.2016 5.3887 2.6308 0
M  V30 91 Ba 3.4238 6.0302 2.4855 0
M  V30 92 Ga 3.8363 6.6951 1.2312 0
M  V30 93 Ba 4.2469 7.3264 -0.0407 0
M  V30 94 Ba 0.1209 5.9182 -2.0788 0
M  V30 95 Ga 1.5109 6.4118 -2.1401 0
M  V30 96 Ba 2.8956 6.9187 -2.2124 0
M  V30 97 Ba -2.5619 -5.0183 4.5186 0
M  V30 98 Ga -1.2184 -4.4521 4.2711 0
M  V30 99 Ba 0.1480 -3.9108 4.1063 0
M  V30 END ATOM
M  V30 BEGIN BOND
M  V30 1 1 1 2
M  V30 2 1 1 3
M  V30 3 1 1 4
M  V30 4 1 1 5
M  V30 5 1 6 7
M  V30 6 1 6 8
M  V30 7 1 6 9
M  V30 8 1 6 10
M  V30 9 1 11 12
M  V30 10 1 11 13
M  V30 11 1 11 14
M  V30 12 1 11 15
M  V30 13 1 16 17
M  V30 14 1 16 18
M  V30 15 1 16 19
M  V30 16 1 16 20
M  V30 17 1 21 22
M  V30 18 1 21 23
M  V30 19 1 21 24
M  V30 20 1 21 25
M  V30 21 1 26 27
M  V30 22 1 26 28
M  V30 23 1 26 29
M  V30 24 1 26 30
M  V30 25 1 31 32
M  V30 26 1 31 33
M  V30 27 1 31 34
M  V30 28 1 31 35
M  V30 29 1 36 37
M  V30 30 1 36 38
M  V30 31 1 36 39
M  V30 32 1 36 40
M  V30 33 1 41 42
M  V30 34 1 41 43
M  V30 35 1 41 44
M  V30 36 1 41 45
M  V30 37 1 46 47
M  V30 38 1 47 48
M  V30 39 1 49 50
M  V30 40 1 50 51
M  V30 41 1 52 53
M  V30 42 1 53 54
M  V30 43 1 55 56
M  V30 44 1 56 57
M  V30 45 1 58 59
M  V30 46 1 59 60
M  V30 47 1 61 62
M  V30 48 1 62 63
M  V30 49 1 64 65
M  V30 50 1 65 66
M  V30 51 1 67 68
M  V30 52 1 68 69
M  V30 53 1 70 71
M  V30 54 1 71 72
M  V30 55 1 73 74
M  V30 56 1 74 75
M  V30 57 1 76 77
M  V30 58 1 77 78
M  V30 59 1 79 80
M  V30 60 1 80 81
M  V30 61 1 82 83
M  V30 62 1 83 84
M  V30 63 1 85 86
M  V30 64 1 86 87
M  V30 65 1 88 89
M  V30 66 1 89 90
M  V30 67 1 91 92
M  V30 68 1 92 93
M  V30 69 1 94 95
M  V30 70 1 95 96
M  V30 71 1 97 98
M  V30 72 1 98 99
M  V30 73 1 2 49
M  V30 74 1 3 94
M  V30 75 1 4 67
M  V30 76 1 5 88
M  V30 77 1 7 46
M  V30 78 1 8 82
M  V30 79 1 9 85
M  V30 80 1 10 79
M  V30 81 1 12 58
M  V30 82 1 13 97
M  V30 83 1 14 64
M  V30 84 1 15 76
M  V30 85 1 17 66
M  V30 86 1 18 73
M  V30 87 1 19 55
M  V30 88 1 20 61
M  V30 89 1 22 48
M  V30 90 1 23 99
M  V30 91 1 24 57
M  V30 92 1 25 52
M  V30 93 1 27 75
M  V30 94 1 28 70
M  V30 95 1 29 69
M  V30 96 1 30 63
M  V30 97 1 32 51
M  V30 98 1 33 72
M  V30 99 1 34 78
M  V30 100 1 35 60
M  V30 101 1 37 54
M  V30 102 1 38 91
M  V30 103 1 39 87
M  V30 104 1 40 90
M  V30 105 1 42 84
M  V30 106 1 43 96
M  V30 107 1 44 93
M  V30 108 1 45 81
M  V30 END BOND
M  V30 END CTAB
M  END

$$$$
