
     RDKit          3D

  0  0  0  0  0  0  0  0  0  0999 V3000
M  V30 BEGIN CTAB
M  V30 COUNTS 99 108 0 0 0
M  V30 BEGIN ATOM
M  V30 1 Pd -4.6083 3.5234 2.7876 0
M  V30 2 Pb -5.2530 2.7970 2.5561 0
M  V30 3 Pb -3.9469 4.2365 3.0215 0
M  V30 4 Pb -4.8100 3.9437 1.9042 0
M  V30 5 Pb -4.3298 3.0341 3.6104 0
M  V30 6 Pd 4.6367 2.5624 1.1959 0
M  V30 7 Pb 3.9558 2.2202 0.5504 0
M  V30 8 Pb 4.4397 3.5053 0.9237 0
M  V30 9 Pb 4.7674 1.6476 1.5756 0
M  V30 10 Pb 5.2730 2.9147 1.8763 0
M  V30 11 Pd 0.0877 -6.6350 -1.5393 0
M  V30 12 Pb -0.5681 -6.4384 -0.8103 0
M  V30 13 Pb 0.8708 -6.5732 -0.9187 0
M  V30 14 Pb 0.7170 -6.7347 -2.3056 0
M  V30 15 Pb -0.6818 -6.5829 -2.1751 0
M  V30 16 Pd 2.6062 -1.4643 -5.3676 0
M  V30 17 Pb 2.7814 -2.4334 -5.5201 0
M  V30 18 Pb 1.7592 -1.5181 -5.8936 0
M  V30 19 Pb 3.3967 -1.4532 -4.7548 0
M  V30 20 Pb 2.3496 -0.5210 -5.1504 0
M  V30 21 Pd 2.7025 -2.3346 -0.1929 0
M  V30 22 Pb 2.4845 -1.3847 -0.4125 0
M  V30 23 Pb 2.8941 -3.2983 0.0084 0
M  V30 24 Pb 3.4358 -2.2789 -0.8742 0
M  V30 25 Pb 1.9804 -2.3562 0.5004 0
M  V30 26 Pd -3.8965 1.5484 -4.4164 0
M  V30 27 Pb -3.5436 0.8597 -5.0480 0
M  V30 28 Pb -4.8033 1.1222 -4.4281 0
M  V30 29 Pb -4.2227 2.2570 -3.7884 0
M  V30 30 Pb -2.9627 1.9108 -4.3807 0
M  V30 31 Pd -5.8689 -2.5631 -1.6786 0
M  V30 32 Pb -6.2413 -1.9527 -0.9812 0
M  V30 33 Pb -6.2662 -1.9868 -2.3961 0
M  V30 34 Pb -5.4754 -3.1934 -2.3467 0
M  V30 35 Pb -5.4202 -3.1173 -0.9754 0
M  V30 36 Pd 1.5976 0.0878 4.7103 0
M  V30 37 Pb 1.2112 -0.5945 4.0859 0
M  V30 38 Pb 1.9411 0.7839 5.3477 0
M  V30 39 Pb 2.5050 -0.1016 4.3282 0
M  V30 40 Pb 0.6831 0.2718 5.0674 0
M  V30 41 Pd 2.7742 5.2983 4.4584 0
M  V30 42 Pb 2.9389 5.7409 3.5766 0
M  V30 43 Pb 1.8023 5.5318 4.3957 0
M  V30 44 Pb 2.6374 4.7264 5.2669 0
M  V30 45 Pb 3.7472 5.0836 4.5053 0
M  V30 46 Ag -5.7257 2.2527 2.3550 0
M  V30 47 Fe -6.1504 0.3730 0.9697 0
M  V30 48 Ag -6.5034 -1.4976 -0.4476 0
M  V30 49 Ag 1.0791 -1.5284 -6.2057 0
M  V30 50 Fe -1.1134 -0.6499 -5.9746 0
M  V30 51 Ag -3.2007 0.3780 -5.5074 0
M  V30 52 Ag -1.2727 -6.4554 -2.6182 0
M  V30 53 Fe -3.2387 -5.1407 -2.8264 0
M  V30 54 Ag -5.1304 -3.7072 -2.7692 0
M  V30 55 Ag -1.1184 -6.2279 -0.3459 0
M  V30 56 Fe -3.1000 -4.9183 -0.2822 0
M  V30 57 Ag -5.0286 -3.5471 -0.4992 0
M  V30 58 Ag 2.0500 0.1498 -4.9909 0
M  V30 59 Fe -0.0319 1.2491 -4.6576 0
M  V30 60 Ag -2.2342 2.0991 -4.3729 0
M  V30 61 Ag 1.1720 -6.7000 -2.8957 0
M  V30 62 Fe 2.1288 -5.0897 -4.3464 0
M  V30 63 Ag 2.8575 -3.1753 -5.5366 0
M  V30 64 Ag -4.9363 4.1746 1.2030 0
M  V30 65 Fe -4.7269 3.5502 -1.0792 0
M  V30 66 Ag -4.4549 2.7911 -3.3136 0
M  V30 67 Ag -4.0383 2.6450 4.1775 0
M  V30 68 Fe -2.0693 1.5078 4.8532 0
M  V30 69 Ag -0.0050 0.4336 5.3142 0
M  V30 70 Ag -3.4362 4.7448 3.2314 0
M  V30 71 Fe -1.1768 5.2416 3.7740 0
M  V30 72 Ag 1.0831 5.7354 4.3171 0
M  V30 73 Ba 3.4233 1.9709 0.0868 0
M  V30 74 Ga 2.8794 0.6457 -0.2588 0
M  V30 75 Ba 2.3327 -0.6775 -0.6071 0
M  V30 76 Ba 1.4424 -2.3823 1.0241 0
M  V30 77 Ga 1.1885 -1.7297 2.3250 0
M  V30 78 Ba 0.8942 -1.1020 3.6297 0
M  V30 79 Ba 3.9625 -1.5179 -4.2657 0
M  V30 80 Ga 3.9934 -1.8429 -2.8246 0
M  V30 81 Ba 3.9791 -2.1708 -1.3838 0
M  V30 82 Ba 5.6785 3.2098 2.4275 0
M  V30 83 Ga 5.1721 4.0670 3.5059 0
M  V30 84 Ba 4.4717 4.9022 4.4892 0
M  V30 85 Ba 4.2631 4.2271 0.8138 0
M  V30 86 Ga 3.6787 5.1733 1.7848 0
M  V30 87 Ba 3.0967 5.9732 2.8807 0
M  V30 88 Ba 4.8423 0.9925 1.9321 0
M  V30 89 Ga 4.0146 0.3418 2.9677 0
M  V30 90 Ba 3.1609 -0.2761 4.0024 0
M  V30 91 Ba 2.1216 1.3121 5.8556 0
M  V30 92 Ga 2.3586 2.7721 5.8511 0
M  V30 93 Ba 2.5966 4.2317 5.8300 0
M  V30 94 Ba -5.4701 0.7743 -4.4261 0
M  V30 95 Ga -6.0207 -0.3784 -3.6821 0
M  V30 96 Ba -6.5490 -1.5334 -2.9258 0
M  V30 97 Ba 1.4805 -6.4736 -0.4911 0
M  V30 98 Ga 2.2557 -5.2640 -0.1424 0
M  V30 99 Ba 2.9966 -4.0251 0.1770 0
M  V30 END ATOM
M  V30 BEGIN BOND
M  V30 1 1 1 2
M  V30 2 1 1 3
M  V30 3 1 1 4
M  V30 4 1 1 5
M  V30 5 1 6 7
M  V30 6 1 6 8
M  V30 7 1 6 9
M  V30 8 1 6 10
M  V30 9 1 11 12
M  V30 10 1 11 13
M  V30 11 1 11 14
M  V30 12 1 11 15
M  V30 13 1 16 17
M  V30 14 1 16 18
M  V30 15 1 16 19
M  V30 16 1 16 20
M  V30 17 1 21 22
M  V30 18 1 21 23
M  V30 19 1 21 24
M  V30 20 1 21 25
M  V30 21 1 26 27
M  V30 22 1 26 28
M  V30 23 1 26 29
M  V30 24 1 26 30
M  V30 25 1 31 32
M  V30 26 1 31 33
M  V30 27 1 31 34
M  V30 28 1 31 35
M  V30 29 1 36 37
M  V30 30 1 36 38
M  V30 31 1 36 39
M  V30 32 1 36 40
M  V30 33 1 41 42
M  V30 34 1 41 43
M  V30 35 1 41 44
M  V30 36 1 41 45
M  V30 37 1 46 47
M  V30 38 1 47 48
M  V30 39 1 49 50
M  V30 40 1 50 51
M  V30 41 1 52 53
M  V30 42 1 53 54
M  V30 43 1 55 56
M  V30 44 1 56 57
M  V30 45 1 58 59
M  V30 46 1 59 60
M  V30 47 1 61 62
M  V30 48 1 62 63
M  V30 49 1 64 65
M  V30 50 1 65 66
M  V30 51 1 67 68
M  V30 52 1 68 69
M  V30 53 1 70 71
M  V30 54 1 71 72
M  V30 55 1 73 74
M  V30 56 1 74 75
M  V30 57 1 76 77
M  V30 58 1 77 78
M  V30 59 1 79 80
M  V30 60 1 80 81
M  V30 61 1 82 83
M  V30 62 1 83 84
M  V30 63 1 85 86
M  V30 64 1 86 87
M  V30 65 1 88 89
M  V30 66 1 89 90
M  V30 67 1 91 92
M  V30 68 1 92 93
M  V30 69 1 94 95
M  V30 70 1 95 96
M  V30 71 1 97 98
M  V30 72 1 98 99
M  V30 73 1 2 46
M  V30 74 1 3 70
M  V30 75 1 4 64
M  V30 76 1 5 67
M  V30 77 1 7 73
M  V30 78 1 8 85
M  V30 79 1 9 88
M  V30 80 1 10 82
M  V30 81 1 12 55
M  V30 82 1 13 97
M  V30 83 1 14 61
M  V30 84 1 15 52
M  V30 85 1 17 63
M  V30 86 1 18 49
M  V30 87 1 19 79
M  V30 88 1 20 58
M  V30 89 1 22 75
M  V30 90 1 23 99
M  V30 91 1 24 81
M  V30 92 1 25 76
M  V30 93 1 27 51
M  V30 94 1 28 94
M  V30 95 1 29 66
M  V30 96 1 30 60
M  V30 97 1 32 48
M  V30 98 1 33 96
M  V30 99 1 34 54
M  V30 100 1 35 57
M  V30 101 1 37 78
M  V30 102 1 38 91
M  V30 103 1 39 90
M  V30 104 1 40 69
M  V30 105 1 42 87
M  V30 106 1 43 72
M  V30 107 1 44 93
M  V30 108 1 45 84
M  V30 END BOND
M  V30 END CTAB
M  END

$$$$
