
     RDKit          3D

  0  0  0  0  0  0  0  0  0  0999 V3000
M  V30 BEGIN CTAB
M  V30 COUNTS 99 108 0 0 0
M  V30 BEGIN ATOM
M  V30 1 Pd 0.4779 2.2816 3.7210 0
M  V30 2 Pb 0.2967 1.8824 4.6210 0
M  V30 3 Pb 0.7274 2.6024 2.8062 0
M  V30 4 Pb 1.4459 2.3431 3.9529 0
M  V30 5 Pb -0.4891 2.1759 3.4772 0
M  V30 6 Pd -2.0457 5.6424 -6.5299 0
M  V30 7 Pb -2.1419 4.7191 -6.9054 0
M  V30 8 Pb -1.0525 5.5405 -6.4629 0
M  V30 9 Pb -3.0312 5.7201 -6.3867 0
M  V30 10 Pb -1.9312 6.5293 -6.0879 0
M  V30 11 Pd -0.7998 -5.6822 1.4568 0
M  V30 12 Pb -0.0493 -5.8251 2.1039 0
M  V30 13 Pb -1.5333 -5.5185 0.8003 0
M  V30 14 Pb -0.4387 -6.3767 0.8321 0
M  V30 15 Pb -1.1733 -4.9760 2.0585 0
M  V30 16 Pd 3.0856 -5.5068 -1.9438 0
M  V30 17 Pb 2.4196 -6.2460 -1.8640 0
M  V30 18 Pb 3.7365 -4.7466 -1.9214 0
M  V30 19 Pb 2.6182 -5.1414 -2.7523 0
M  V30 20 Pb 3.5438 -5.8512 -1.1263 0
M  V30 21 Pd -3.0295 -1.8149 -4.8352 0
M  V30 22 Pb -2.8706 -1.1113 -5.5309 0
M  V30 23 Pb -3.2080 -2.5102 -4.1408 0
M  V30 24 Pb -2.1592 -2.2602 -5.0551 0
M  V30 25 Pb -3.8791 -1.3654 -4.5613 0
M  V30 26 Pd 6.0310 -2.3381 3.7350 0
M  V30 27 Pb 6.1797 -2.1892 2.7555 0
M  V30 28 Pb 5.7640 -2.4939 4.6855 0
M  V30 29 Pb 5.9879 -1.3580 3.9097 0
M  V30 30 Pb 5.9837 -3.3123 3.5288 0
M  V30 31 Pd 1.1562 -2.7305 5.5321 0
M  V30 32 Pb 0.8891 -1.8558 5.9459 0
M  V30 33 Pb 2.0420 -2.7130 6.0020 0
M  V30 34 Pb 0.2727 -2.7680 5.0659 0
M  V30 35 Pb 1.4027 -3.6088 5.1173 0
M  V30 36 Pd -5.6841 3.8280 -0.6357 0
M  V30 37 Pb -6.0133 3.0321 -1.1416 0
M  V30 38 Pb -5.2719 4.5963 -0.1471 0
M  V30 39 Pb -5.8939 4.3737 -1.4488 0
M  V30 40 Pb -5.3933 3.2631 0.1363 0
M  V30 41 Pd 0.8940 6.4387 -0.5290 0
M  V30 42 Pb 1.4421 6.2277 -1.3401 0
M  V30 43 Pb 1.1493 5.5577 -0.1296 0
M  V30 44 Pb 0.1919 6.6001 0.1608 0
M  V30 45 Pb 0.5668 7.2419 -1.0195 0
M  V30 46 Ag -2.2006 4.0116 -7.1516 0
M  V30 47 Fe -2.4841 1.7114 -6.6230 0
M  V30 48 Ag -2.7694 -0.5783 -6.0520 0
M  V30 49 Ag -4.4996 -1.0342 -4.3023 0
M  V30 50 Fe -5.4254 0.6843 -2.9509 0
M  V30 51 Ag -6.2083 2.4490 -1.5692 0
M  V30 52 Ag 2.2590 -4.8669 -3.3542 0
M  V30 53 Fe 0.3886 -3.7350 -4.2897 0
M  V30 54 Ag -1.4999 -2.5990 -5.1825 0
M  V30 55 Ag 4.2312 -4.1982 -1.7832 0
M  V30 56 Fe 5.3052 -3.0731 0.0145 0
M  V30 57 Ag 6.2098 -2.1410 2.0056 0
M  V30 58 Ag -1.7911 7.1359 -5.6757 0
M  V30 59 Fe -0.7971 7.7032 -3.6012 0
M  V30 60 Ag 0.2747 7.7421 -1.4889 0
M  V30 61 Ag -0.3345 5.5003 -6.2462 0
M  V30 62 Fe 0.9064 5.7418 -4.2334 0
M  V30 63 Ag 1.7151 6.0691 -2.0222 0
M  V30 64 Ag 3.9004 -6.0460 -0.4982 0
M  V30 65 Fe 4.9365 -5.1842 1.4531 0
M  V30 66 Ag 5.8869 -4.0100 3.2811 0
M  V30 67 Ag -3.7325 5.7805 -6.1295 0
M  V30 68 Fe -5.0039 5.3066 -4.1795 0
M  V30 69 Ag -6.0086 4.7118 -2.1102 0
M  V30 70 Ag 2.1804 2.3372 4.0896 0
M  V30 71 Fe 4.1146 0.9669 4.1115 0
M  V30 72 Ag 5.8600 -0.6358 4.0467 0
M  V30 73 Ag -1.2155 2.0621 3.3157 0
M  V30 74 Fe -3.1731 2.4561 2.0264 0
M  V30 75 Ag -5.1093 2.8778 0.7139 0
M  V30 76 Ag -4.8773 5.0966 0.2477 0
M  V30 77 Fe -2.7038 6.0037 0.5418 0
M  V30 78 Ag -0.4360 6.7032 0.5534 0
M  V30 79 Ag -2.0608 -5.3935 0.2850 0
M  V30 80 Fe -2.7288 -4.2157 -1.6637 0
M  V30 81 Ag -3.3608 -3.0186 -3.6128 0
M  V30 82 Ba 0.2020 1.5504 5.2884 0
M  V30 83 Ga 0.4288 0.1729 5.7758 0
M  V30 84 Ba 0.6593 -1.2073 6.2538 0
M  V30 85 Ba -1.4533 -4.4406 2.5029 0
M  V30 86 Ga -0.9248 -3.6225 3.6103 0
M  V30 87 Ba -0.3894 -2.8080 4.7170 0
M  V30 88 Ba 0.5139 -5.9099 2.5938 0
M  V30 89 Ga 1.0492 -5.0923 3.7019 0
M  V30 90 Ba 1.5810 -4.2713 4.8090 0
M  V30 91 Ba -0.1970 -6.8776 0.3266 0
M  V30 92 Ga 0.8532 -6.8643 -0.7093 0
M  V30 93 Ba 1.9220 -6.7869 -1.7230 0
M  V30 94 Ba 1.0127 2.7756 2.1332 0
M  V30 95 Ga 1.1221 3.8742 1.1533 0
M  V30 96 Ba 1.3315 4.8583 0.0731 0
M  V30 97 Ba 5.4988 -2.5825 5.3812 0
M  V30 98 Ga 4.1142 -2.6580 5.8899 0
M  V30 99 Ba 2.7112 -2.7275 6.3468 0
M  V30 END ATOM
M  V30 BEGIN BOND
M  V30 1 1 1 2
M  V30 2 1 1 3
M  V30 3 1 1 4
M  V30 4 1 1 5
M  V30 5 1 6 7
M  V30 6 1 6 8
M  V30 7 1 6 9
M  V30 8 1 6 10
M  V30 9 1 11 12
M  V30 10 1 11 13
M  V30 11 1 11 14
M  V30 12 1 11 15
M  V30 13 1 16 17
M  V30 14 1 16 18
M  V30 15 1 16 19
M  V30 16 1 16 20
M  V30 17 1 21 22
M  V30 18 1 21 23
M  V30 19 1 21 24
M  V30 20 1 21 25
M  V30 21 1 26 27
M  V30 22 1 26 28
M  V30 23 1 26 29
M  V30 24 1 26 30
M  V30 25 1 31 32
M  V30 26 1 31 33
M  V30 27 1 31 34
M  V30 28 1 31 35
M  V30 29 1 36 37
M  V30 30 1 36 38
M  V30 31 1 36 39
M  V30 32 1 36 40
M  V30 33 1 41 42
M  V30 34 1 41 43
M  V30 35 1 41 44
M  V30 36 1 41 45
M  V30 37 1 46 47
M  V30 38 1 47 48
M  V30 39 1 49 50
M  V30 40 1 50 51
M  V30 41 1 52 53
M  V30 42 1 53 54
M  V30 43 1 55 56
M  V30 44 1 56 57
M  V30 45 1 58 59
M  V30 46 1 59 60
M  V30 47 1 61 62
M  V30 48 1 62 63
M  V30 49 1 64 65
M  V30 50 1 65 66
M  V30 51 1 67 68
M  V30 52 1 68 69
M  V30 53 1 70 71
M  V30 54 1 71 72
M  V30 55 1 73 74
M  V30 56 1 74 75
M  V30 57 1 76 77
M  V30 58 1 77 78
M  V30 59 1 79 80
M  V30 60 1 80 81
M  V30 61 1 82 83
M  V30 62 1 83 84
M  V30 63 1 85 86
M  V30 64 1 86 87
M  V30 65 1 88 89
M  V30 66 1 89 90
M  V30 67 1 91 92
M  V30 68 1 92 93
M  V30 69 1 94 95
M  V30 70 1 95 96
M  V30 71 1 97 98
M  V30 72 1 98 99
M  V30 73 1 2 82
M  V30 74 1 3 94
M  V30 75 1 4 70
M  V30 76 1 5 73
M  V30 77 1 7 46
M  V30 78 1 8 61
M  V30 79 1 9 67
M  V30 80 1 10 58
M  V30 81 1 12 88
M  V30 82 1 13 79
M  V30 83 1 14 91
M  V30 84 1 15 85
M  V30 85 1 17 93
M  V30 86 1 18 55
M  V30 87 1 19 52
M  V30 88 1 20 64
M  V30 89 1 22 48
M  V30 90 1 23 81
M  V30 91 1 24 54
M  V30 92 1 25 49
M  V30 93 1 27 57
M  V30 94 1 28 97
M  V30 95 1 29 72
M  V30 96 1 30 66
M  V30 97 1 32 84
M  V30 98 1 33 99
M  V30 99 1 34 87
M  V30 100 1 35 90
M  V30 101 1 37 51
M  V30 102 1 38 76
M  V30 103 1 39 69
M  V30 104 1 40 75
M  V30 105 1 42 63
M  V30 106 1 43 96
M  V30 107 1 44 78
M  V30 108 1 45 60
M  V30 END BOND
M  V30 END CTAB
M  END

$$$$
