
     RDKit          3D

  0  0  0  0  0  0  0  0  0  0999 V3000
M  V30 BEGIN CTAB
M  V30 COUNTS 99 108 0 0 0
M  V30 BEGIN ATOM
M  V30 1 Pd -2.4333 -1.5694 4.2033 0
M  V30 2 Pb -3.4101 -1.4781 4.4036 0
M  V30 3 Pb -1.4612 -1.6655 3.9913 0
M  V30 4 Pb -2.1888 -0.8682 4.8765 0
M  V30 5 Pb -2.6577 -2.2558 3.5119 0
M  V30 6 Pd 6.7583 -4.8884 -2.0421 0
M  V30 7 Pb 6.5725 -4.0562 -2.5660 0
M  V30 8 Pb 6.8663 -5.7159 -1.4953 0
M  V30 9 Pb 6.2918 -5.4418 -2.7239 0
M  V30 10 Pb 7.0617 -4.3552 -1.2545 0
M  V30 11 Pd -2.8980 3.6040 -3.6556 0
M  V30 12 Pb -3.3076 2.7663 -3.2840 0
M  V30 13 Pb -2.4644 3.0945 -4.4009 0
M  V30 14 Pb -2.5080 4.4662 -3.9853 0
M  V30 15 Pb -3.3726 4.0968 -2.9308 0
M  V30 16 Pd 0.7039 6.8444 -1.5759 0
M  V30 17 Pb 0.1310 6.9699 -2.3867 0
M  V30 18 Pb 1.2341 6.6609 -0.7470 0
M  V30 19 Pb 1.3400 6.3273 -2.1463 0
M  V30 20 Pb 0.0645 7.3384 -0.9861 0
M  V30 21 Pd 1.5575 0.2137 -5.0841 0
M  V30 22 Pb 2.4372 -0.2020 -4.8405 0
M  V30 23 Pb 0.7089 0.6457 -5.3965 0
M  V30 24 Pb 1.9829 1.1116 -4.9833 0
M  V30 25 Pb 1.1000 -0.6754 -5.1277 0
M  V30 26 Pd -1.3309 5.7942 5.2140 0
M  V30 27 Pb -0.4136 5.7964 4.8151 0
M  V30 28 Pb -2.2774 5.7410 5.5247 0
M  V30 29 Pb -1.1587 4.9547 5.7292 0
M  V30 30 Pb -1.5431 6.5502 4.5954 0
M  V30 31 Pd -6.2938 1.7509 2.5534 0
M  V30 32 Pb -6.3272 0.9229 3.1128 0
M  V30 33 Pb -6.3875 2.3160 3.3698 0
M  V30 34 Pb -6.1891 2.5823 2.0135 0
M  V30 35 Pb -6.0994 1.2383 1.7143 0
M  V30 36 Pd -0.0843 -6.2831 -1.4679 0
M  V30 37 Pb -0.3488 -5.7493 -2.2704 0
M  V30 38 Pb 0.2422 -6.7577 -0.6472 0
M  V30 39 Pb 0.6719 -6.6345 -2.0164 0
M  V30 40 Pb -0.8432 -5.9130 -0.9328 0
M  V30 41 Pd 4.0890 -5.4549 1.8993 0
M  V30 42 Pb 4.6800 -6.1909 1.5737 0
M  V30 43 Pb 3.5255 -4.6940 2.2216 0
M  V30 44 Pb 3.3006 -6.0758 1.8869 0
M  V30 45 Pb 4.8816 -4.8402 1.8569 0
M  V30 46 Ag 6.4001 -3.4342 -2.9497 0
M  V30 47 Fe 4.7353 -1.9709 -3.8096 0
M  V30 48 Ag 3.1310 -0.4596 -4.7008 0
M  V30 49 Ag 0.7118 -1.3184 -5.1313 0
M  V30 50 Fe 0.0914 -3.3365 -4.0426 0
M  V30 51 Ag -0.4685 -5.3318 -2.8814 0
M  V30 52 Ag 1.7805 5.9233 -2.5971 0
M  V30 53 Fe 2.0937 3.8757 -3.7556 0
M  V30 54 Ag 2.2870 1.7846 -4.8611 0
M  V30 55 Ag 1.5477 6.5202 -0.0794 0
M  V30 56 Fe 1.0368 6.1516 2.2114 0
M  V30 57 Ag 0.2231 5.8199 4.4187 0
M  V30 58 Ag -3.7683 4.4023 -2.3764 0
M  V30 59 Fe -4.9437 3.9181 -0.3755 0
M  V30 60 Ag -6.0472 3.1793 1.5881 0
M  V30 61 Ag -3.6452 2.1823 -2.9474 0
M  V30 62 Fe -4.7847 1.4530 -0.9899 0
M  V30 63 Ag -5.8930 0.9434 1.0530 0
M  V30 64 Ag -0.3713 7.6662 -0.4706 0
M  V30 65 Fe -1.1058 7.4894 1.7811 0
M  V30 66 Ag -1.6632 7.0471 4.0470 0
M  V30 67 Ag 5.8206 -5.8716 -3.1071 0
M  V30 68 Fe 3.5355 -6.4762 -2.9440 0
M  V30 69 Ag 1.2436 -6.8320 -2.4563 0
M  V30 70 Ag -1.9577 -0.3364 5.3557 0
M  V30 71 Fe -1.5076 1.9590 5.7773 0
M  V30 72 Ag -1.1071 4.2843 6.0620 0
M  V30 73 Ag -2.8254 -2.7614 2.9841 0
M  V30 74 Fe -2.1267 -4.2035 1.2317 0
M  V30 75 Ag -1.4030 -5.6378 -0.5170 0
M  V30 76 Ag -0.7290 -1.7197 3.8401 0
M  V30 77 Fe 1.1772 -2.9526 3.1430 0
M  V30 78 Ag 3.1453 -4.0930 2.4603 0
M  V30 79 Ag -2.9923 5.6065 5.6946 0
M  V30 80 Fe -4.8133 4.2702 4.9747 0
M  V30 81 Ag -6.3533 2.7912 3.9448 0
M  V30 82 Ba -4.1504 -1.4352 4.5253 0
M  V30 83 Ga -5.2405 -0.5624 4.0475 0
M  V30 84 Ba -6.3178 0.3210 3.5599 0
M  V30 85 Ba 7.1828 -4.0078 -0.6022 0
M  V30 86 Ga 6.3788 -4.1518 0.6288 0
M  V30 87 Ba 5.4858 -4.3959 1.7805 0
M  V30 88 Ba 6.8722 -6.3215 -1.0573 0
M  V30 89 Ga 6.0515 -6.5860 0.1348 0
M  V30 90 Ba 5.1625 -6.6941 1.3022 0
M  V30 91 Ba -2.2337 5.1326 -4.2007 0
M  V30 92 Ga -1.2644 6.0837 -3.6190 0
M  V30 93 Ba -0.2892 7.0097 -3.0077 0
M  V30 94 Ba 0.4873 -7.0779 -0.0115 0
M  V30 95 Ga 1.6069 -6.8178 0.9202 0
M  V30 96 Ba 2.7249 -6.5612 1.8548 0
M  V30 97 Ba -2.1781 2.7130 -4.9817 0
M  V30 98 Ga -1.0249 1.8400 -5.2821 0
M  V30 99 Ba 0.0892 0.9581 -5.6864 0
M  V30 END ATOM
M  V30 BEGIN BOND
M  V30 1 1 1 2
M  V30 2 1 1 3
M  V30 3 1 1 4
M  V30 4 1 1 5
M  V30 5 1 6 7
M  V30 6 1 6 8
M  V30 7 1 6 9
M  V30 8 1 6 10
M  V30 9 1 11 12
M  V30 10 1 11 13
M  V30 11 1 11 14
M  V30 12 1 11 15
M  V30 13 1 16 17
M  V30 14 1 16 18
M  V30 15 1 16 19
M  V30 16 1 16 20
M  V30 17 1 21 22
M  V30 18 1 21 23
M  V30 19 1 21 24
M  V30 20 1 21 25
M  V30 21 1 26 27
M  V30 22 1 26 28
M  V30 23 1 26 29
M  V30 24 1 26 30
M  V30 25 1 31 32
M  V30 26 1 31 33
M  V30 27 1 31 34
M  V30 28 1 31 35
M  V30 29 1 36 37
M  V30 30 1 36 38
M  V30 31 1 36 39
M  V30 32 1 36 40
M  V30 33 1 41 42
M  V30 34 1 41 43
M  V30 35 1 41 44
M  V30 36 1 41 45
M  V30 37 1 46 47
M  V30 38 1 47 48
M  V30 39 1 49 50
M  V30 40 1 50 51
M  V30 41 1 52 53
M  V30 42 1 53 54
M  V30 43 1 55 56
M  V30 44 1 56 57
M  V30 45 1 58 59
M  V30 46 1 59 60
M  V30 47 1 61 62
M  V30 48 1 62 63
M  V30 49 1 64 65
M  V30 50 1 65 66
M  V30 51 1 67 68
M  V30 52 1 68 69
M  V30 53 1 70 71
M  V30 54 1 71 72
M  V30 55 1 73 74
M  V30 56 1 74 75
M  V30 57 1 76 77
M  V30 58 1 77 78
M  V30 59 1 79 80
M  V30 60 1 80 81
M  V30 61 1 82 83
M  V30 62 1 83 84
M  V30 63 1 85 86
M  V30 64 1 86 87
M  V30 65 1 88 89
M  V30 66 1 89 90
M  V30 67 1 91 92
M  V30 68 1 92 93
M  V30 69 1 94 95
M  V30 70 1 95 96
M  V30 71 1 97 98
M  V30 72 1 98 99
M  V30 73 1 2 82
M  V30 74 1 3 76
M  V30 75 1 4 70
M  V30 76 1 5 73
M  V30 77 1 7 46
M  V30 78 1 8 88
M  V30 79 1 9 67
M  V30 80 1 10 85
M  V30 81 1 12 61
M  V30 82 1 13 97
M  V30 83 1 14 91
M  V30 84 1 15 58
M  V30 85 1 17 93
M  V30 86 1 18 55
M  V30 87 1 19 52
M  V30 88 1 20 64
M  V30 89 1 22 48
M  V30 90 1 23 99
M  V30 91 1 24 54
M  V30 92 1 25 49
M  V30 93 1 27 57
M  V30 94 1 28 79
M  V30 95 1 29 72
M  V30 96 1 30 66
M  V30 97 1 32 84
M  V30 98 1 33 81
M  V30 99 1 34 60
M  V30 100 1 35 63
M  V30 101 1 37 51
M  V30 102 1 38 94
M  V30 103 1 39 69
M  V30 104 1 40 75
M  V30 105 1 42 90
M  V30 106 1 43 78
M  V30 107 1 44 96
M  V30 108 1 45 87
M  V30 END BOND
M  V30 END CTAB
M  END

$$$$
