
     RDKit          3D

  0  0  0  0  0  0  0  0  0  0999 V3000
M  V30 BEGIN CTAB
M  V30 COUNTS 99 108 0 0 0
M  V30 BEGIN ATOM
M  V30 1 Pd -3.3423 2.8614 -3.4384 0
M  V30 2 Pb -2.4788 3.3591 -3.5179 0
M  V30 3 Pb -4.2585 2.4517 -3.4260 0
M  V30 4 Pb -2.9965 2.1025 -3.9937 0
M  V30 5 Pb -3.6156 3.5344 -2.7536 0
M  V30 6 Pd -5.1016 -3.0439 2.9525 0
M  V30 7 Pb -4.1252 -3.0944 2.7544 0
M  V30 8 Pb -5.2547 -3.7114 2.2289 0
M  V30 9 Pb -4.9421 -2.3906 3.6995 0
M  V30 10 Pb -6.1065 -2.9430 3.0283 0
M  V30 11 Pd 6.6721 1.9102 2.3477 0
M  V30 12 Pb 6.2239 2.7309 2.6821 0
M  V30 13 Pb 6.4443 1.4182 3.1866 0
M  V30 14 Pb 7.1352 1.0772 2.0528 0
M  V30 15 Pb 6.8197 2.3676 1.4484 0
M  V30 16 Pd 5.3426 -4.4578 -0.9507 0
M  V30 17 Pb 6.1136 -4.1790 -0.3867 0
M  V30 18 Pb 4.5470 -4.5633 -1.5874 0
M  V30 19 Pb 4.7890 -4.5194 -0.1164 0
M  V30 20 Pb 5.9619 -4.4542 -1.7237 0
M  V30 21 Pd 2.6734 -1.5388 3.2651 0
M  V30 22 Pb 1.8402 -1.8779 2.8362 0
M  V30 23 Pb 3.4933 -1.2229 3.7498 0
M  V30 24 Pb 3.0807 -2.4201 3.0162 0
M  V30 25 Pb 2.2131 -0.6818 3.5018 0
M  V30 26 Pd 2.6524 -1.7978 -5.4113 0
M  V30 27 Pb 2.5926 -2.6463 -4.8418 0
M  V30 28 Pb 2.8282 -0.8986 -5.8036 0
M  V30 29 Pb 1.6849 -1.5611 -5.2881 0
M  V30 30 Pb 3.5790 -2.0358 -5.6664 0
M  V30 31 Pd 4.1664 4.7107 -2.2750 0
M  V30 32 Pb 3.2870 5.0086 -2.6390 0
M  V30 33 Pb 4.2654 4.1859 -3.1204 0
M  V30 34 Pb 5.0266 4.3457 -1.8671 0
M  V30 35 Pb 4.0210 5.2493 -1.4534 0
M  V30 36 Pd -4.0123 2.3426 3.7586 0
M  V30 37 Pb -3.0189 2.3194 3.8852 0
M  V30 38 Pb -4.9977 2.3772 3.6098 0
M  V30 39 Pb -4.1171 1.5418 4.3518 0
M  V30 40 Pb -3.9428 3.0937 3.1028 0
M  V30 41 Pd -9.1528 -0.9849 -0.2394 0
M  V30 42 Pb -9.0600 -1.8359 -0.7489 0
M  V30 43 Pb -8.9808 -0.4580 -1.0706 0
M  V30 44 Pb -9.1631 -0.1543 0.3092 0
M  V30 45 Pb -9.1296 -1.5049 0.6281 0
M  V30 46 Ag -3.4191 -3.1249 2.5095 0
M  V30 47 Fe -1.1019 -2.6219 2.5726 0
M  V30 48 Ag 1.2294 -2.1848 2.5355 0
M  V30 49 Ag -1.8846 3.8121 -3.5862 0
M  V30 50 Fe 0.3690 4.4750 -3.2439 0
M  V30 51 Ag 2.6162 5.1712 -2.9258 0
M  V30 52 Ag 1.8474 -0.0494 3.6771 0
M  V30 53 Fe -0.2073 1.1352 3.8305 0
M  V30 54 Ag -2.2729 2.3017 3.9760 0
M  V30 55 Ag -5.4701 -4.1273 1.6523 0
M  V30 56 Fe -7.1226 -3.7827 0.0088 0
M  V30 57 Ag -8.8307 -2.5001 -0.9827 0
M  V30 58 Ag 5.8653 3.3670 2.7986 0
M  V30 59 Fe 4.7576 4.8230 1.3176 0
M  V30 60 Ag 3.9703 5.5482 -0.7789 0
M  V30 61 Ag 6.3510 -4.3873 -2.3453 0
M  V30 62 Fe 5.7901 -3.3921 -4.3943 0
M  V30 63 Ag 4.2713 -2.2611 -5.7794 0
M  V30 64 Ag 7.4494 0.4157 1.9003 0
M  V30 65 Fe 7.1805 -1.7531 0.9812 0
M  V30 66 Ag 6.6634 -3.8417 -0.0137 0
M  V30 67 Ag -2.7234 1.4871 -4.3297 0
M  V30 68 Fe -0.8691 0.0750 -4.8058 0
M  V30 69 Ag 0.9562 -1.3677 -5.3016 0
M  V30 70 Ag -3.7389 3.9765 -2.1624 0
M  V30 71 Fe -3.8717 3.9331 0.2073 0
M  V30 72 Ag -3.9604 3.6076 2.5572 0
M  V30 73 Ag -5.7240 2.4170 3.4393 0
M  V30 74 Fe -7.4952 1.5093 2.1521 0
M  V30 75 Ag -9.0899 0.4212 0.7771 0
M  V30 76 Ag -4.9677 2.1979 -3.4580 0
M  V30 77 Fe -6.8700 1.0710 -2.5841 0
M  V30 78 Ag -8.7430 -0.0705 -1.6668 0
M  V30 79 Ag 3.0565 -0.2090 -5.9795 0
M  V30 80 Fe 3.6683 1.8521 -4.9732 0
M  V30 81 Ag 4.2375 3.8218 -3.7761 0
M  V30 82 Ba 4.4690 -4.6139 0.5595 0
M  V30 83 Ga 3.8845 -3.8169 1.6602 0
M  V30 84 Ba 3.2855 -3.1168 2.8177 0
M  V30 85 Ba 3.9553 -4.6259 -2.0840 0
M  V30 86 Ga 3.3055 -3.9022 -3.2334 0
M  V30 87 Ba 2.5715 -3.2738 -4.3883 0
M  V30 88 Ba 6.9466 2.6988 0.7657 0
M  V30 89 Ga 6.2446 3.3860 -0.3659 0
M  V30 90 Ba 5.6858 4.0861 -1.5672 0
M  V30 91 Ba -6.8677 -2.8880 3.0406 0
M  V30 92 Ga -7.9488 -2.3688 2.1525 0
M  V30 93 Ba -9.0628 -1.8640 1.2973 0
M  V30 94 Ba -4.8156 -1.9266 4.2816 0
M  V30 95 Ga -4.5133 -0.4957 4.5084 0
M  V30 96 Ba -4.2102 0.9279 4.7765 0
M  V30 97 Ba 6.2524 0.9938 3.7737 0
M  V30 98 Ga 5.1667 0.0118 3.9705 0
M  V30 99 Ba 4.0771 -0.9689 4.1528 0
M  V30 END ATOM
M  V30 BEGIN BOND
M  V30 1 1 1 2
M  V30 2 1 1 3
M  V30 3 1 1 4
M  V30 4 1 1 5
M  V30 5 1 6 7
M  V30 6 1 6 8
M  V30 7 1 6 9
M  V30 8 1 6 10
M  V30 9 1 11 12
M  V30 10 1 11 13
M  V30 11 1 11 14
M  V30 12 1 11 15
M  V30 13 1 16 17
M  V30 14 1 16 18
M  V30 15 1 16 19
M  V30 16 1 16 20
M  V30 17 1 21 22
M  V30 18 1 21 23
M  V30 19 1 21 24
M  V30 20 1 21 25
M  V30 21 1 26 27
M  V30 22 1 26 28
M  V30 23 1 26 29
M  V30 24 1 26 30
M  V30 25 1 31 32
M  V30 26 1 31 33
M  V30 27 1 31 34
M  V30 28 1 31 35
M  V30 29 1 36 37
M  V30 30 1 36 38
M  V30 31 1 36 39
M  V30 32 1 36 40
M  V30 33 1 41 42
M  V30 34 1 41 43
M  V30 35 1 41 44
M  V30 36 1 41 45
M  V30 37 1 46 47
M  V30 38 1 47 48
M  V30 39 1 49 50
M  V30 40 1 50 51
M  V30 41 1 52 53
M  V30 42 1 53 54
M  V30 43 1 55 56
M  V30 44 1 56 57
M  V30 45 1 58 59
M  V30 46 1 59 60
M  V30 47 1 61 62
M  V30 48 1 62 63
M  V30 49 1 64 65
M  V30 50 1 65 66
M  V30 51 1 67 68
M  V30 52 1 68 69
M  V30 53 1 70 71
M  V30 54 1 71 72
M  V30 55 1 73 74
M  V30 56 1 74 75
M  V30 57 1 76 77
M  V30 58 1 77 78
M  V30 59 1 79 80
M  V30 60 1 80 81
M  V30 61 1 82 83
M  V30 62 1 83 84
M  V30 63 1 85 86
M  V30 64 1 86 87
M  V30 65 1 88 89
M  V30 66 1 89 90
M  V30 67 1 91 92
M  V30 68 1 92 93
M  V30 69 1 94 95
M  V30 70 1 95 96
M  V30 71 1 97 98
M  V30 72 1 98 99
M  V30 73 1 2 49
M  V30 74 1 3 76
M  V30 75 1 4 67
M  V30 76 1 5 70
M  V30 77 1 7 46
M  V30 78 1 8 55
M  V30 79 1 9 94
M  V30 80 1 10 91
M  V30 81 1 12 58
M  V30 82 1 13 97
M  V30 83 1 14 64
M  V30 84 1 15 88
M  V30 85 1 17 66
M  V30 86 1 18 85
M  V30 87 1 19 82
M  V30 88 1 20 61
M  V30 89 1 22 48
M  V30 90 1 23 99
M  V30 91 1 24 84
M  V30 92 1 25 52
M  V30 93 1 27 87
M  V30 94 1 28 79
M  V30 95 1 29 69
M  V30 96 1 30 63
M  V30 97 1 32 51
M  V30 98 1 33 81
M  V30 99 1 34 90
M  V30 100 1 35 60
M  V30 101 1 37 54
M  V30 102 1 38 73
M  V30 103 1 39 96
M  V30 104 1 40 72
M  V30 105 1 42 57
M  V30 106 1 43 78
M  V30 107 1 44 75
M  V30 108 1 45 93
M  V30 END BOND
M  V30 END CTAB
M  END

$$$$
