
     RDKit          3D

  0  0  0  0  0  0  0  0  0  0999 V3000
M  V30 BEGIN CTAB
M  V30 COUNTS 99 108 0 0 0
M  V30 BEGIN ATOM
M  V30 1 Pd -2.3823 3.3858 -3.4214 0
M  V30 2 Pb -3.1085 2.7360 -3.6654 0
M  V30 3 Pb -1.6738 4.0745 -3.2493 0
M  V30 4 Pb -1.8498 3.1001 -4.2135 0
M  V30 5 Pb -2.8750 3.6205 -2.5823 0
M  V30 6 Pd 3.7060 4.8817 3.6901 0
M  V30 7 Pb 3.7622 3.8967 3.5201 0
M  V30 8 Pb 4.2914 5.0520 2.8920 0
M  V30 9 Pb 3.0677 4.7468 4.4527 0
M  V30 10 Pb 3.7042 5.8651 3.8618 0
M  V30 11 Pd -3.7081 -6.9158 1.2826 0
M  V30 12 Pb -4.2703 -6.0961 1.1623 0
M  V30 13 Pb -3.4807 -6.6798 2.2242 0
M  V30 14 Pb -3.0372 -7.6491 1.3630 0
M  V30 15 Pb -3.8111 -7.0734 0.3027 0
M  V30 16 Pd 3.1174 -6.2312 0.0593 0
M  V30 17 Pb 2.6410 -6.9945 0.4910 0
M  V30 18 Pb 2.7168 -6.5034 -0.8138 0
M  V30 19 Pb 3.4787 -5.9307 0.9450 0
M  V30 20 Pb 3.5127 -5.4502 -0.4278 0
M  V30 21 Pd 1.5990 -2.7173 4.0984 0
M  V30 22 Pb 2.2163 -1.9838 3.8138 0
M  V30 23 Pb 0.9506 -3.4248 4.3774 0
M  V30 24 Pb 2.3188 -3.3906 3.9079 0
M  V30 25 Pb 0.8760 -2.0531 4.2863 0
M  V30 26 Pd 0.8427 -2.7651 -5.8853 0
M  V30 27 Pb 0.8183 -3.7290 -5.6299 0
M  V30 28 Pb -0.0162 -2.8237 -6.3953 0
M  V30 29 Pb 0.8518 -1.7945 -6.1095 0
M  V30 30 Pb 1.6528 -2.6856 -5.2992 0
M  V30 31 Pd -4.1475 -2.2004 -4.1908 0
M  V30 32 Pb -4.3347 -1.2165 -4.2702 0
M  V30 33 Pb -3.7409 -2.2414 -5.1062 0
M  V30 34 Pb -4.0277 -3.1887 -4.1014 0
M  V30 35 Pb -4.5467 -2.2238 -3.2721 0
M  V30 36 Pd -1.6925 4.3864 4.0738 0
M  V30 37 Pb -1.7460 3.4121 4.2859 0
M  V30 38 Pb -1.6441 5.3536 3.8343 0
M  V30 39 Pb -0.9479 4.4719 4.7412 0
M  V30 40 Pb -2.3812 4.2944 3.3544 0
M  V30 41 Pd 2.7009 8.1851 0.2814 0
M  V30 42 Pb 3.5439 7.6632 0.1563 0
M  V30 43 Pb 2.3153 7.8298 -0.5705 0
M  V30 44 Pb 1.8194 8.5681 0.5361 0
M  V30 45 Pb 3.0401 8.4795 1.1708 0
M  V30 46 Ag 3.8539 3.1653 3.3760 0
M  V30 47 Fe 3.2300 0.8767 3.5063 0
M  V30 48 Ag 2.6722 -1.4310 3.5922 0
M  V30 49 Ag 0.3079 -1.5873 4.4361 0
M  V30 50 Fe -0.7168 0.5541 4.4334 0
M  V30 51 Ag -1.7706 2.6814 4.4465 0
M  V30 52 Ag 2.4003 -6.6474 -1.4764 0
M  V30 53 Fe 1.5871 -5.6655 -3.4768 0
M  V30 54 Ag 0.8568 -4.4256 -5.3624 0
M  V30 55 Ag -3.8411 -7.0796 -0.4446 0
M  V30 56 Fe -3.9153 -5.6125 -2.3086 0
M  V30 57 Ag -3.9895 -3.9269 -3.9779 0
M  V30 58 Ag -4.6221 -5.4556 0.9870 0
M  V30 59 Fe -4.8151 -3.8178 -0.7253 0
M  V30 60 Ag -4.8264 -2.3339 -2.5827 0
M  V30 61 Ag 3.7253 -4.8859 -0.8774 0
M  V30 62 Fe 3.0804 -3.7004 -2.8359 0
M  V30 63 Ag 2.2199 -2.6773 -4.8033 0
M  V30 64 Ag -2.4433 -8.0956 1.4367 0
M  V30 65 Fe -0.0897 -8.0142 1.1604 0
M  V30 66 Ag 2.1966 -7.5363 0.7520 0
M  V30 67 Ag -1.4062 2.8498 -4.7588 0
M  V30 68 Fe -0.2638 0.9528 -5.6036 0
M  V30 69 Ag 0.7816 -1.0684 -6.2661 0
M  V30 70 Ag -3.2312 3.7475 -1.9333 0
M  V30 71 Fe -3.0982 4.0120 0.4241 0
M  V30 72 Ag -2.8561 4.2647 2.7741 0
M  V30 73 Ag -1.6113 6.0555 3.5789 0
M  V30 74 Fe -0.3663 7.5580 2.2350 0
M  V30 75 Ag 1.1641 8.7224 0.8518 0
M  V30 76 Ag -1.1316 4.5960 -3.2131 0
M  V30 77 Fe 0.4195 6.0544 -2.1559 0
M  V30 78 Ag 1.9995 7.5441 -1.1885 0
M  V30 79 Ag -3.1856 -6.4952 2.8854 0
M  V30 80 Fe -1.4211 -5.2306 3.8440 0
M  V30 81 Ag 0.4039 -3.8995 4.5718 0
M  V30 82 Ba -3.6823 2.2998 -3.8881 0
M  V30 83 Ga -4.0440 0.8774 -4.0820 0
M  V30 84 Ba -4.5451 -0.4942 -4.3253 0
M  V30 85 Ba 3.7344 -5.7171 1.6199 0
M  V30 86 Ga 3.2891 -4.7910 2.6842 0
M  V30 87 Ba 2.8789 -3.8766 3.7725 0
M  V30 88 Ba 3.7352 6.6081 3.9431 0
M  V30 89 Ga 3.5128 7.6774 2.9588 0
M  V30 90 Ba 3.2562 8.6300 1.8689 0
M  V30 91 Ba 4.6970 5.2175 2.2776 0
M  V30 92 Ga 4.4789 6.1971 1.1912 0
M  V30 93 Ba 4.1439 7.2130 0.1701 0
M  V30 94 Ba 2.5726 4.6823 5.0174 0
M  V30 95 Ga 1.0987 4.5914 5.1197 0
M  V30 96 Ba -0.3746 4.5002 5.2298 0
M  V30 97 Ba -0.6779 -2.8012 -6.7498 0
M  V30 98 Ga -2.0607 -2.5691 -6.2828 0
M  V30 99 Ba -3.4327 -2.3340 -5.7866 0
M  V30 END ATOM
M  V30 BEGIN BOND
M  V30 1 1 1 2
M  V30 2 1 1 3
M  V30 3 1 1 4
M  V30 4 1 1 5
M  V30 5 1 6 7
M  V30 6 1 6 8
M  V30 7 1 6 9
M  V30 8 1 6 10
M  V30 9 1 11 12
M  V30 10 1 11 13
M  V30 11 1 11 14
M  V30 12 1 11 15
M  V30 13 1 16 17
M  V30 14 1 16 18
M  V30 15 1 16 19
M  V30 16 1 16 20
M  V30 17 1 21 22
M  V30 18 1 21 23
M  V30 19 1 21 24
M  V30 20 1 21 25
M  V30 21 1 26 27
M  V30 22 1 26 28
M  V30 23 1 26 29
M  V30 24 1 26 30
M  V30 25 1 31 32
M  V30 26 1 31 33
M  V30 27 1 31 34
M  V30 28 1 31 35
M  V30 29 1 36 37
M  V30 30 1 36 38
M  V30 31 1 36 39
M  V30 32 1 36 40
M  V30 33 1 41 42
M  V30 34 1 41 43
M  V30 35 1 41 44
M  V30 36 1 41 45
M  V30 37 1 46 47
M  V30 38 1 47 48
M  V30 39 1 49 50
M  V30 40 1 50 51
M  V30 41 1 52 53
M  V30 42 1 53 54
M  V30 43 1 55 56
M  V30 44 1 56 57
M  V30 45 1 58 59
M  V30 46 1 59 60
M  V30 47 1 61 62
M  V30 48 1 62 63
M  V30 49 1 64 65
M  V30 50 1 65 66
M  V30 51 1 67 68
M  V30 52 1 68 69
M  V30 53 1 70 71
M  V30 54 1 71 72
M  V30 55 1 73 74
M  V30 56 1 74 75
M  V30 57 1 76 77
M  V30 58 1 77 78
M  V30 59 1 79 80
M  V30 60 1 80 81
M  V30 61 1 82 83
M  V30 62 1 83 84
M  V30 63 1 85 86
M  V30 64 1 86 87
M  V30 65 1 88 89
M  V30 66 1 89 90
M  V30 67 1 91 92
M  V30 68 1 92 93
M  V30 69 1 94 95
M  V30 70 1 95 96
M  V30 71 1 97 98
M  V30 72 1 98 99
M  V30 73 1 2 82
M  V30 74 1 3 76
M  V30 75 1 4 67
M  V30 76 1 5 70
M  V30 77 1 7 46
M  V30 78 1 8 91
M  V30 79 1 9 94
M  V30 80 1 10 88
M  V30 81 1 12 58
M  V30 82 1 13 79
M  V30 83 1 14 64
M  V30 84 1 15 55
M  V30 85 1 17 66
M  V30 86 1 18 52
M  V30 87 1 19 85
M  V30 88 1 20 61
M  V30 89 1 22 48
M  V30 90 1 23 81
M  V30 91 1 24 87
M  V30 92 1 25 49
M  V30 93 1 27 54
M  V30 94 1 28 97
M  V30 95 1 29 69
M  V30 96 1 30 63
M  V30 97 1 32 84
M  V30 98 1 33 99
M  V30 99 1 34 57
M  V30 100 1 35 60
M  V30 101 1 37 51
M  V30 102 1 38 73
M  V30 103 1 39 96
M  V30 104 1 40 72
M  V30 105 1 42 93
M  V30 106 1 43 78
M  V30 107 1 44 75
M  V30 108 1 45 90
M  V30 END BOND
M  V30 END CTAB
M  END

$$$$
