
     RDKit          3D

  0  0  0  0  0  0  0  0  0  0999 V3000
M  V30 BEGIN CTAB
M  V30 COUNTS 99 108 0 0 0
M  V30 BEGIN ATOM
M  V30 1 Pd -2.3825 0.5631 3.2370 0
M  V30 2 Pb -2.5337 1.2911 2.5604 0
M  V30 3 Pb -2.2942 1.2659 3.9477 0
M  V30 4 Pb -2.6670 -0.1527 2.5913 0
M  V30 5 Pb -2.1091 -0.1349 3.9019 0
M  V30 6 Pd -1.6298 -4.5814 0.4302 0
M  V30 7 Pb -0.8731 -4.0949 0.8589 0
M  V30 8 Pb -0.9663 -5.2170 0.0125 0
M  V30 9 Pb -2.2773 -3.8733 0.7198 0
M  V30 10 Pb -2.3419 -5.1127 -0.0334 0
M  V30 11 Pd 2.0400 -4.4494 -3.7913 0
M  V30 12 Pb 2.4075 -3.6944 -4.3308 0
M  V30 13 Pb 1.6462 -5.1383 -3.1666 0
M  V30 14 Pb 1.3999 -4.7168 -4.5110 0
M  V30 15 Pb 2.6035 -4.1295 -3.0340 0
M  V30 16 Pd -2.4882 1.5148 -2.2603 0
M  V30 17 Pb -3.4003 1.2586 -1.9653 0
M  V30 18 Pb -1.5781 1.7860 -2.5834 0
M  V30 19 Pb -2.5657 0.8871 -3.0598 0
M  V30 20 Pb -2.4384 2.0871 -1.4401 0
M  V30 21 Pd 4.9124 0.8660 -0.7351 0
M  V30 22 Pb 4.9980 0.8603 0.2765 0
M  V30 23 Pb 4.9740 1.8645 -0.7629 0
M  V30 24 Pb 4.7930 0.8094 -1.7251 0
M  V30 25 Pb 4.8240 -0.1241 -0.7075 0
M  V30 26 Pd -3.3884 -3.9881 -4.1685 0
M  V30 27 Pb -3.2044 -3.0434 -4.4936 0
M  V30 28 Pb -4.1886 -3.6585 -3.6835 0
M  V30 29 Pb -2.6137 -4.3485 -4.6962 0
M  V30 30 Pb -3.5399 -4.8563 -3.7034 0
M  V30 31 Pd -0.8062 5.7402 4.0598 0
M  V30 32 Pb -1.5844 6.0061 3.4993 0
M  V30 33 Pb -0.0367 5.4027 4.5929 0
M  V30 34 Pb -0.1934 6.2355 3.4235 0
M  V30 35 Pb -1.3710 5.1362 4.6168 0
M  V30 36 Pd 2.4585 -0.8026 4.3979 0
M  V30 37 Pb 2.4045 0.0535 4.9057 0
M  V30 38 Pb 2.5484 -1.6408 3.8706 0
M  V30 39 Pb 1.6042 -1.1353 4.8060 0
M  V30 40 Pb 3.2716 -0.4211 3.9228 0
M  V30 41 Pd 1.4026 5.1599 -1.1820 0
M  V30 42 Pb 1.3329 4.4756 -1.9052 0
M  V30 43 Pb 1.4233 5.7915 -0.3896 0
M  V30 44 Pb 0.4376 5.3735 -1.3001 0
M  V30 45 Pb 2.3823 4.9761 -1.0773 0
M  V30 46 Ag -2.0523 6.1434 2.9419 0
M  V30 47 Fe -1.6400 5.9836 0.6285 0
M  V30 48 Ag -0.2779 5.5618 -1.2470 0
M  V30 49 Ag -4.0520 0.9494 -1.8090 0
M  V30 50 Fe -4.8831 -1.1841 -2.3413 0
M  V30 51 Ag -4.7278 -3.3219 -3.3071 0
M  V30 52 Ag 2.7066 -3.0647 -4.6006 0
M  V30 53 Fe 3.7240 -1.1007 -3.7441 0
M  V30 54 Ag 4.6624 0.6471 -2.4438 0
M  V30 55 Ag 0.4847 5.0462 4.9879 0
M  V30 56 Fe 1.5193 2.9257 5.2094 0
M  V30 57 Ag 2.4011 0.7259 5.2310 0
M  V30 58 Ag -0.2127 -3.7984 1.0235 0
M  V30 59 Fe 1.6943 -3.6075 -0.3496 0
M  V30 60 Ag 2.8546 -3.8706 -2.3851 0
M  V30 61 Ag 4.6860 -0.8405 -0.5761 0
M  V30 62 Fe 3.7041 -1.9689 1.2452 0
M  V30 63 Ag 2.7014 -2.1630 3.3688 0
M  V30 64 Ba -2.3388 1.7736 4.5035 0
M  V30 65 Ga -2.0286 3.1956 4.7536 0
M  V30 66 Ba -1.7208 4.6147 5.0228 0
M  V30 67 Ba -0.9081 1.9666 -2.8765 0
M  V30 68 Ga 0.1656 2.9524 -2.6432 0
M  V30 69 Ba 1.2435 3.9348 -2.4146 0
M  V30 70 Ba -1.8422 -0.6345 4.3972 0
M  V30 71 Ga -0.4612 -1.0239 4.7581 0
M  V30 72 Ba 0.9414 -1.3715 5.0758 0
M  V30 73 Ba -2.6169 0.4451 -3.6868 0
M  V30 74 Ga -2.8485 -0.9633 -4.1366 0
M  V30 75 Ba -3.0658 -2.3246 -4.7197 0
M  V30 76 Ba -2.8021 -5.5608 -0.4258 0
M  V30 77 Ga -3.2673 -5.5473 -1.8262 0
M  V30 78 Ba -3.6764 -5.4254 -3.2385 0
M  V30 79 Ba -0.4948 -5.6922 -0.3469 0
M  V30 80 Ga 0.4355 -5.6369 -1.5075 0
M  V30 81 Ba 1.3774 -5.6373 -2.6599 0
M  V30 82 Ba 5.0175 2.6138 -0.7783 0
M  V30 83 Ga 4.0541 3.7275 -0.8928 0
M  V30 84 Ba 3.1233 4.8688 -1.0048 0
M  V30 85 Ba -2.5755 1.8805 2.0894 0
M  V30 86 Ga -2.5209 2.1602 0.6369 0
M  V30 87 Ba -2.4730 2.4889 -0.8056 0
M  V30 88 Ba 0.2724 6.5927 2.9360 0
M  V30 89 Ga 0.8287 6.3911 1.5662 0
M  V30 90 Ba 1.4305 6.2692 0.2062 0
M  V30 91 Ba -3.0039 -0.6774 2.1648 0
M  V30 92 Ga -2.8095 -2.0034 1.5370 0
M  V30 93 Ba -2.7653 -3.3172 0.8568 0
M  V30 94 Ba 5.0978 0.8269 1.0343 0
M  V30 95 Ga 4.4285 0.3423 2.2788 0
M  V30 96 Ba 3.8826 -0.0912 3.5999 0
M  V30 97 Ba 0.8826 -4.9055 -5.0202 0
M  V30 98 Ga -0.5877 -4.7617 -5.0663 0
M  V30 99 Ba -2.0582 -4.6245 -5.1252 0
M  V30 END ATOM
M  V30 BEGIN BOND
M  V30 1 1 1 2
M  V30 2 1 1 3
M  V30 3 1 1 4
M  V30 4 1 1 5
M  V30 5 1 6 7
M  V30 6 1 6 8
M  V30 7 1 6 9
M  V30 8 1 6 10
M  V30 9 1 11 12
M  V30 10 1 11 13
M  V30 11 1 11 14
M  V30 12 1 11 15
M  V30 13 1 16 17
M  V30 14 1 16 18
M  V30 15 1 16 19
M  V30 16 1 16 20
M  V30 17 1 21 22
M  V30 18 1 21 23
M  V30 19 1 21 24
M  V30 20 1 21 25
M  V30 21 1 26 27
M  V30 22 1 26 28
M  V30 23 1 26 29
M  V30 24 1 26 30
M  V30 25 1 31 32
M  V30 26 1 31 33
M  V30 27 1 31 34
M  V30 28 1 31 35
M  V30 29 1 36 37
M  V30 30 1 36 38
M  V30 31 1 36 39
M  V30 32 1 36 40
M  V30 33 1 41 42
M  V30 34 1 41 43
M  V30 35 1 41 44
M  V30 36 1 41 45
M  V30 37 1 46 47
M  V30 38 1 47 48
M  V30 39 1 49 50
M  V30 40 1 50 51
M  V30 41 1 52 53
M  V30 42 1 53 54
M  V30 43 1 55 56
M  V30 44 1 56 57
M  V30 45 1 58 59
M  V30 46 1 59 60
M  V30 47 1 61 62
M  V30 48 1 62 63
M  V30 49 1 64 65
M  V30 50 1 65 66
M  V30 51 1 67 68
M  V30 52 1 68 69
M  V30 53 1 70 71
M  V30 54 1 71 72
M  V30 55 1 73 74
M  V30 56 1 74 75
M  V30 57 1 76 77
M  V30 58 1 77 78
M  V30 59 1 79 80
M  V30 60 1 80 81
M  V30 61 1 82 83
M  V30 62 1 83 84
M  V30 63 1 85 86
M  V30 64 1 86 87
M  V30 65 1 88 89
M  V30 66 1 89 90
M  V30 67 1 91 92
M  V30 68 1 92 93
M  V30 69 1 94 95
M  V30 70 1 95 96
M  V30 71 1 97 98
M  V30 72 1 98 99
M  V30 73 1 2 85
M  V30 74 1 3 64
M  V30 75 1 4 91
M  V30 76 1 5 70
M  V30 77 1 7 58
M  V30 78 1 8 79
M  V30 79 1 9 93
M  V30 80 1 10 76
M  V30 81 1 12 52
M  V30 82 1 13 81
M  V30 83 1 14 97
M  V30 84 1 15 60
M  V30 85 1 17 49
M  V30 86 1 18 67
M  V30 87 1 19 73
M  V30 88 1 20 87
M  V30 89 1 22 94
M  V30 90 1 23 82
M  V30 91 1 24 54
M  V30 92 1 25 61
M  V30 93 1 27 75
M  V30 94 1 28 51
M  V30 95 1 29 99
M  V30 96 1 30 78
M  V30 97 1 32 46
M  V30 98 1 33 55
M  V30 99 1 34 88
M  V30 100 1 35 66
M  V30 101 1 37 57
M  V30 102 1 38 63
M  V30 103 1 39 72
M  V30 104 1 40 96
M  V30 105 1 42 69
M  V30 106 1 43 90
M  V30 107 1 44 48
M  V30 108 1 45 84
M  V30 END BOND
M  V30 END CTAB
M  END

$$$$
