
     RDKit          3D

  0  0  0  0  0  0  0  0  0  0999 V3000
M  V30 BEGIN CTAB
M  V30 COUNTS 99 108 0 0 0
M  V30 BEGIN ATOM
M  V30 1 Pd -2.0058 -3.0076 -3.5189 0
M  V30 2 Pb -2.9860 -3.1038 -3.3373 0
M  V30 3 Pb -2.1985 -2.1179 -3.9336 0
M  V30 4 Pb -1.8047 -3.9126 -3.1386 0
M  V30 5 Pb -1.0308 -2.8894 -3.7023 0
M  V30 6 Pd 2.0752 6.6449 -3.9084 0
M  V30 7 Pb 1.8898 6.5130 -2.9340 0
M  V30 8 Pb 2.2451 6.7764 -4.8810 0
M  V30 9 Pb 3.0268 6.3569 -3.8146 0
M  V30 10 Pb 1.1030 6.8133 -4.0778 0
M  V30 11 Pd -2.2785 1.7512 5.5233 0
M  V30 12 Pb -2.6735 1.9246 4.6152 0
M  V30 13 Pb -1.6355 2.5166 5.4663 0
M  V30 14 Pb -1.8672 1.4764 6.3906 0
M  V30 15 Pb -2.9032 0.9792 5.5874 0
M  V30 16 Pd 2.2284 -3.5608 7.0894 0
M  V30 17 Pb 1.7547 -2.9193 7.6899 0
M  V30 18 Pb 2.6347 -4.1776 6.4149 0
M  V30 19 Pb 2.8479 -2.8151 6.8460 0
M  V30 20 Pb 1.5538 -4.2795 7.2570 0
M  V30 21 Pd 2.5959 3.0191 3.0981 0
M  V30 22 Pb 2.2459 3.7028 2.4571 0
M  V30 23 Pb 1.9691 3.3857 3.7878 0
M  V30 24 Pb 2.9798 2.3536 3.7413 0
M  V30 25 Pb 3.2087 2.6629 2.3939 0
M  V30 26 Pd -1.0161 -7.8100 2.4239 0
M  V30 27 Pb -0.0364 -7.6758 2.5741 0
M  V30 28 Pb -2.0041 -7.8421 2.2849 0
M  V30 29 Pb -0.9177 -7.7467 1.4313 0
M  V30 30 Pb -1.1158 -7.7758 3.4182 0
M  V30 31 Pd -5.6058 -2.6065 0.7388 0
M  V30 32 Pb -5.6166 -2.6974 -0.2583 0
M  V30 33 Pb -5.7375 -3.5925 0.8252 0
M  V30 34 Pb -5.5851 -2.5332 1.7310 0
M  V30 35 Pb -5.3846 -1.6261 0.7168 0
M  V30 36 Pd 4.0550 1.7366 -4.4017 0
M  V30 37 Pb 4.3405 1.6534 -3.4478 0
M  V30 38 Pb 3.7560 1.7859 -5.3583 0
M  V30 39 Pb 4.4292 2.6676 -4.3902 0
M  V30 40 Pb 3.6931 0.8056 -4.3787 0
M  V30 41 Pd -0.0816 3.8203 -7.0097 0
M  V30 42 Pb 0.5301 4.5303 -7.3471 0
M  V30 43 Pb -0.7030 3.1172 -6.6624 0
M  V30 44 Pb 0.5735 3.1439 -7.3423 0
M  V30 45 Pb -0.6376 4.5338 -6.5806 0
M  V30 46 Ag 1.7161 6.4274 -2.2088 0
M  V30 47 Fe 1.8794 5.3025 -0.1228 0
M  V30 48 Ag 1.9866 4.2360 1.9972 0
M  V30 49 Ag 3.6637 2.3927 1.8636 0
M  V30 50 Fe 4.1179 1.9903 -0.4315 0
M  V30 51 Ag 4.5535 1.5970 -2.7318 0
M  V30 52 Ag 3.2541 -2.2155 6.6517 0
M  V30 53 Fe 3.3011 -0.1775 5.4308 0
M  V30 54 Ag 3.3074 1.8542 4.1985 0
M  V30 55 Ag 2.8344 -4.6654 5.8810 0
M  V30 56 Fe 1.9061 -6.1380 4.2648 0
M  V30 57 Ag 0.6680 -7.5027 2.7659 0
M  V30 58 Ag -3.3702 0.3992 5.5748 0
M  V30 59 Fe -4.5145 -1.0899 4.1322 0
M  V30 60 Ag -5.5315 -2.4315 2.4668 0
M  V30 61 Ag -2.9967 1.9450 3.9319 0
M  V30 62 Fe -4.0990 0.6141 2.2913 0
M  V30 63 Ag -5.1730 -0.9052 0.8025 0
M  V30 64 Ag 1.0487 -4.8333 7.2746 0
M  V30 65 Fe -0.1217 -6.3288 5.8488 0
M  V30 66 Ag -1.1170 -7.6696 4.1604 0
M  V30 67 Ag -1.5390 1.1869 6.9975 0
M  V30 68 Fe -0.0864 -0.5558 7.6918 0
M  V30 69 Ag 1.3821 -2.3833 8.0552 0
M  V30 70 Ag -1.6155 -4.5932 -2.8805 0
M  V30 71 Fe -1.2476 -6.1347 -1.1099 0
M  V30 72 Ag -0.8929 -7.6467 0.6886 0
M  V30 73 Ag -0.2992 -2.7974 -3.8348 0
M  V30 74 Fe 1.5655 -1.3526 -4.1018 0
M  V30 75 Ag 3.4174 0.1091 -4.3655 0
M  V30 76 Ag -2.3648 -1.4629 -4.2599 0
M  V30 77 Fe -1.7365 0.5668 -5.3223 0
M  V30 78 Ag -1.1933 2.6170 -6.3924 0
M  V30 79 Ag -2.7341 -7.7742 2.1363 0
M  V30 80 Fe -4.3708 -6.1669 1.5310 0
M  V30 81 Ag -5.7529 -4.3320 0.9380 0
M  V30 82 Ba -3.7292 -3.1321 -3.2297 0
M  V30 83 Ga -4.6655 -2.9695 -2.0990 0
M  V30 84 Ba -5.6403 -2.8143 -1.0002 0
M  V30 85 Ba 0.3781 6.8620 -4.2696 0
M  V30 86 Ga -0.3708 6.0217 -5.2267 0
M  V30 87 Ba -0.9707 5.0955 -6.2091 0
M  V30 88 Ba 2.3354 6.8297 -5.6191 0
M  V30 89 Ga 1.7120 6.0025 -6.6576 0
M  V30 90 Ba 0.9973 5.0772 -7.5433 0
M  V30 91 Ba 3.7261 6.0880 -3.8305 0
M  V30 92 Ga 4.2433 4.7237 -4.0642 0
M  V30 93 Ba 4.7355 3.3510 -4.3030 0
M  V30 94 Ba 3.5075 1.7428 -6.0688 0
M  V30 95 Ga 2.3258 2.2124 -6.8215 0
M  V30 96 Ba 1.1371 2.6974 -7.5532 0
M  V30 97 Ba -1.1391 3.0807 5.4722 0
M  V30 98 Ga 0.1737 3.3683 4.8596 0
M  V30 99 Ba 1.4874 3.7000 4.2715 0
M  V30 END ATOM
M  V30 BEGIN BOND
M  V30 1 1 1 2
M  V30 2 1 1 3
M  V30 3 1 1 4
M  V30 4 1 1 5
M  V30 5 1 6 7
M  V30 6 1 6 8
M  V30 7 1 6 9
M  V30 8 1 6 10
M  V30 9 1 11 12
M  V30 10 1 11 13
M  V30 11 1 11 14
M  V30 12 1 11 15
M  V30 13 1 16 17
M  V30 14 1 16 18
M  V30 15 1 16 19
M  V30 16 1 16 20
M  V30 17 1 21 22
M  V30 18 1 21 23
M  V30 19 1 21 24
M  V30 20 1 21 25
M  V30 21 1 26 27
M  V30 22 1 26 28
M  V30 23 1 26 29
M  V30 24 1 26 30
M  V30 25 1 31 32
M  V30 26 1 31 33
M  V30 27 1 31 34
M  V30 28 1 31 35
M  V30 29 1 36 37
M  V30 30 1 36 38
M  V30 31 1 36 39
M  V30 32 1 36 40
M  V30 33 1 41 42
M  V30 34 1 41 43
M  V30 35 1 41 44
M  V30 36 1 41 45
M  V30 37 1 46 47
M  V30 38 1 47 48
M  V30 39 1 49 50
M  V30 40 1 50 51
M  V30 41 1 52 53
M  V30 42 1 53 54
M  V30 43 1 55 56
M  V30 44 1 56 57
M  V30 45 1 58 59
M  V30 46 1 59 60
M  V30 47 1 61 62
M  V30 48 1 62 63
M  V30 49 1 64 65
M  V30 50 1 65 66
M  V30 51 1 67 68
M  V30 52 1 68 69
M  V30 53 1 70 71
M  V30 54 1 71 72
M  V30 55 1 73 74
M  V30 56 1 74 75
M  V30 57 1 76 77
M  V30 58 1 77 78
M  V30 59 1 79 80
M  V30 60 1 80 81
M  V30 61 1 82 83
M  V30 62 1 83 84
M  V30 63 1 85 86
M  V30 64 1 86 87
M  V30 65 1 88 89
M  V30 66 1 89 90
M  V30 67 1 91 92
M  V30 68 1 92 93
M  V30 69 1 94 95
M  V30 70 1 95 96
M  V30 71 1 97 98
M  V30 72 1 98 99
M  V30 73 1 2 82
M  V30 74 1 3 76
M  V30 75 1 4 70
M  V30 76 1 5 73
M  V30 77 1 7 46
M  V30 78 1 8 88
M  V30 79 1 9 91
M  V30 80 1 10 85
M  V30 81 1 12 61
M  V30 82 1 13 97
M  V30 83 1 14 67
M  V30 84 1 15 58
M  V30 85 1 17 69
M  V30 86 1 18 55
M  V30 87 1 19 52
M  V30 88 1 20 64
M  V30 89 1 22 48
M  V30 90 1 23 99
M  V30 91 1 24 54
M  V30 92 1 25 49
M  V30 93 1 27 57
M  V30 94 1 28 79
M  V30 95 1 29 72
M  V30 96 1 30 66
M  V30 97 1 32 84
M  V30 98 1 33 81
M  V30 99 1 34 60
M  V30 100 1 35 63
M  V30 101 1 37 51
M  V30 102 1 38 94
M  V30 103 1 39 93
M  V30 104 1 40 75
M  V30 105 1 42 90
M  V30 106 1 43 78
M  V30 107 1 44 96
M  V30 108 1 45 87
M  V30 END BOND
M  V30 END CTAB
M  END

$$$$
