
     RDKit          3D

  0  0  0  0  0  0  0  0  0  0999 V3000
M  V30 BEGIN CTAB
M  V30 COUNTS 99 108 0 0 0
M  V30 BEGIN ATOM
M  V30 1 Pd -2.8944 -5.2031 0.2156 0
M  V30 2 Pb -3.2043 -4.8141 1.0865 0
M  V30 3 Pb -3.7955 -5.0905 -0.2101 0
M  V30 4 Pb -1.9829 -5.3577 0.5873 0
M  V30 5 Pb -2.5561 -5.5466 -0.6539 0
M  V30 6 Pd -3.0188 3.9732 -2.5622 0
M  V30 7 Pb -2.3645 3.9464 -1.8089 0
M  V30 8 Pb -3.6616 3.8734 -3.3126 0
M  V30 9 Pb -2.3125 4.0495 -3.2606 0
M  V30 10 Pb -3.7345 3.6396 -1.9480 0
M  V30 11 Pd 1.0348 5.3006 3.2899 0
M  V30 12 Pb 0.1620 4.8611 3.0524 0
M  V30 13 Pb 1.1113 5.8003 2.4289 0
M  V30 14 Pb 1.9651 5.5927 3.4903 0
M  V30 15 Pb 1.0505 4.7223 4.0977 0
M  V30 16 Pd 6.3966 1.2534 1.7962 0
M  V30 17 Pb 6.3892 2.1691 2.1916 0
M  V30 18 Pb 6.3624 0.3283 1.4188 0
M  V30 19 Pb 6.4247 1.6636 0.8805 0
M  V30 20 Pb 6.3037 0.8628 2.7139 0
M  V30 21 Pd 2.5524 3.2919 -1.1418 0
M  V30 22 Pb 1.5945 3.2896 -0.8565 0
M  V30 23 Pb 2.5450 4.2533 -0.8652 0
M  V30 24 Pb 3.5376 3.2839 -1.3263 0
M  V30 25 Pb 2.5131 2.3508 -1.4835 0
M  V30 26 Pd 3.7368 -2.9527 3.5698 0
M  V30 27 Pb 4.3579 -2.8139 2.7956 0
M  V30 28 Pb 3.0876 -3.1138 4.3182 0
M  V30 29 Pb 3.2441 -3.6601 3.0722 0
M  V30 30 Pb 4.2421 -2.2516 4.0743 0
M  V30 31 Pd -1.2913 -1.4752 4.3718 0
M  V30 32 Pb -1.9640 -2.1271 4.0022 0
M  V30 33 Pb -0.7660 -2.1968 4.8255 0
M  V30 34 Pb -0.7009 -0.8142 4.8236 0
M  V30 35 Pb -1.7238 -0.6879 3.9188 0
M  V30 36 Pd -0.8681 -1.8395 -5.7647 0
M  V30 37 Pb -0.0664 -1.6442 -5.1976 0
M  V30 38 Pb -1.7298 -2.0699 -6.2269 0
M  V30 39 Pb -0.8735 -0.8655 -5.9992 0
M  V30 40 Pb -0.8437 -2.7937 -5.4860 0
M  V30 41 Pd -5.6753 -2.1561 -3.7875 0
M  V30 42 Pb -5.7320 -1.3269 -4.3343 0
M  V30 43 Pb -5.6939 -2.9804 -3.2134 0
M  V30 44 Pb -5.3264 -2.6133 -4.6094 0
M  V30 45 Pb -5.9210 -1.5893 -2.9976 0
M  V30 46 Ag 2.5087 1.6627 -1.7869 0
M  V30 47 Fe 1.5183 0.0733 -3.2509 0
M  V30 48 Ag 0.4957 -1.4868 -4.7243 0
M  V30 49 Ag 1.0752 4.2036 4.6292 0
M  V30 50 Fe 0.4395 1.9616 5.0440 0
M  V30 51 Ag -0.3206 -0.2767 5.1717 0
M  V30 52 Ag -4.2554 3.2332 -1.5905 0
M  V30 53 Fe -5.2754 1.1002 -1.8449 0
M  V30 54 Ag -6.0296 -1.0683 -2.4647 0
M  V30 55 Ag -4.1141 3.6455 -3.8541 0
M  V30 56 Fe -5.0757 1.5801 -4.4857 0
M  V30 57 Ag -5.7789 -0.6694 -4.6795 0
M  V30 58 Ag -0.4427 4.4262 2.9187 0
M  V30 59 Fe -1.3075 2.2237 3.2081 0
M  V30 60 Ag -1.9538 -0.0350 3.6124 0
M  V30 61 Ag 2.6996 5.6809 3.5741 0
M  V30 62 Fe 4.6557 4.4268 3.1143 0
M  V30 63 Ag 6.3089 2.8487 2.4908 0
M  V30 64 Ag -1.8802 3.9179 -3.8558 0
M  V30 65 Fe -1.2344 1.9988 -5.0972 0
M  V30 66 Ag -0.7978 -0.1210 -6.0767 0
M  V30 67 Ag -1.2833 -5.5009 0.8059 0
M  V30 68 Fe 0.7809 -4.8482 1.7715 0
M  V30 69 Ag 2.8432 -4.1934 2.7397 0
M  V30 70 Ag -2.2761 -5.7293 -1.3181 0
M  V30 71 Fe -1.5302 -4.7694 -3.3486 0
M  V30 72 Ag -0.8751 -3.4912 -5.2294 0
M  V30 73 Ba -1.9158 3.8542 -1.2171 0
M  V30 74 Ga -0.4885 3.6071 -0.9430 0
M  V30 75 Ba 0.9109 3.3546 -0.5545 0
M  V30 76 Ba -3.4338 -4.5194 1.7403 0
M  V30 77 Ga -2.9256 -3.5492 2.7378 0
M  V30 78 Ba -2.5200 -2.5989 3.7991 0
M  V30 79 Ba 6.4203 2.0031 0.2073 0
M  V30 80 Ga 5.3644 2.6197 -0.6265 0
M  V30 81 Ba 4.2807 3.2258 -1.4318 0
M  V30 82 Ba 6.3120 -0.3789 1.1747 0
M  V30 83 Ga 5.5724 -1.5529 1.6792 0
M  V30 84 Ba 4.8194 -2.7060 2.2116 0
M  V30 85 Ba 6.1988 0.5750 3.4004 0
M  V30 86 Ga 5.4316 -0.5719 3.9270 0
M  V30 87 Ba 4.6541 -1.7271 4.4191 0
M  V30 88 Ba -2.3761 -2.3530 -6.4983 0
M  V30 89 Ga -3.7133 -2.6008 -5.9055 0
M  V30 90 Ba -5.0361 -2.8264 -5.2728 0
M  V30 91 Ba -4.4547 -5.0659 -0.5737 0
M  V30 92 Ga -5.0816 -4.2860 -1.6648 0
M  V30 93 Ba -5.7901 -3.5662 -2.7471 0
M  V30 94 Ba 2.5651 -3.2987 4.8298 0
M  V30 95 Ga 1.1299 -2.9917 5.0199 0
M  V30 96 Ba -0.3039 -2.6662 5.1884 0
M  V30 97 Ba 1.2856 6.1397 1.7840 0
M  V30 98 Ga 1.8594 5.5949 0.5384 0
M  V30 99 Ba 2.4298 4.9694 -0.6703 0
M  V30 END ATOM
M  V30 BEGIN BOND
M  V30 1 1 1 2
M  V30 2 1 1 3
M  V30 3 1 1 4
M  V30 4 1 1 5
M  V30 5 1 6 7
M  V30 6 1 6 8
M  V30 7 1 6 9
M  V30 8 1 6 10
M  V30 9 1 11 12
M  V30 10 1 11 13
M  V30 11 1 11 14
M  V30 12 1 11 15
M  V30 13 1 16 17
M  V30 14 1 16 18
M  V30 15 1 16 19
M  V30 16 1 16 20
M  V30 17 1 21 22
M  V30 18 1 21 23
M  V30 19 1 21 24
M  V30 20 1 21 25
M  V30 21 1 26 27
M  V30 22 1 26 28
M  V30 23 1 26 29
M  V30 24 1 26 30
M  V30 25 1 31 32
M  V30 26 1 31 33
M  V30 27 1 31 34
M  V30 28 1 31 35
M  V30 29 1 36 37
M  V30 30 1 36 38
M  V30 31 1 36 39
M  V30 32 1 36 40
M  V30 33 1 41 42
M  V30 34 1 41 43
M  V30 35 1 41 44
M  V30 36 1 41 45
M  V30 37 1 46 47
M  V30 38 1 47 48
M  V30 39 1 49 50
M  V30 40 1 50 51
M  V30 41 1 52 53
M  V30 42 1 53 54
M  V30 43 1 55 56
M  V30 44 1 56 57
M  V30 45 1 58 59
M  V30 46 1 59 60
M  V30 47 1 61 62
M  V30 48 1 62 63
M  V30 49 1 64 65
M  V30 50 1 65 66
M  V30 51 1 67 68
M  V30 52 1 68 69
M  V30 53 1 70 71
M  V30 54 1 71 72
M  V30 55 1 73 74
M  V30 56 1 74 75
M  V30 57 1 76 77
M  V30 58 1 77 78
M  V30 59 1 79 80
M  V30 60 1 80 81
M  V30 61 1 82 83
M  V30 62 1 83 84
M  V30 63 1 85 86
M  V30 64 1 86 87
M  V30 65 1 88 89
M  V30 66 1 89 90
M  V30 67 1 91 92
M  V30 68 1 92 93
M  V30 69 1 94 95
M  V30 70 1 95 96
M  V30 71 1 97 98
M  V30 72 1 98 99
M  V30 73 1 2 76
M  V30 74 1 3 91
M  V30 75 1 4 67
M  V30 76 1 5 70
M  V30 77 1 7 73
M  V30 78 1 8 55
M  V30 79 1 9 64
M  V30 80 1 10 52
M  V30 81 1 12 58
M  V30 82 1 13 97
M  V30 83 1 14 61
M  V30 84 1 15 49
M  V30 85 1 17 63
M  V30 86 1 18 82
M  V30 87 1 19 79
M  V30 88 1 20 85
M  V30 89 1 22 75
M  V30 90 1 23 99
M  V30 91 1 24 81
M  V30 92 1 25 46
M  V30 93 1 27 84
M  V30 94 1 28 94
M  V30 95 1 29 69
M  V30 96 1 30 87
M  V30 97 1 32 78
M  V30 98 1 33 96
M  V30 99 1 34 51
M  V30 100 1 35 60
M  V30 101 1 37 48
M  V30 102 1 38 88
M  V30 103 1 39 66
M  V30 104 1 40 72
M  V30 105 1 42 57
M  V30 106 1 43 93
M  V30 107 1 44 90
M  V30 108 1 45 54
M  V30 END BOND
M  V30 END CTAB
M  END

$$$$
