
     RDKit          3D

  0  0  0  0  0  0  0  0  0  0999 V3000
M  V30 BEGIN CTAB
M  V30 COUNTS 99 108 0 0 0
M  V30 BEGIN ATOM
M  V30 1 Pd 0.3696 -3.3983 -1.6280 0
M  V30 2 Pb 0.4388 -3.9854 -0.8157 0
M  V30 3 Pb 1.2497 -3.7552 -1.9473 0
M  V30 4 Pb -0.5451 -3.1064 -1.3520 0
M  V30 5 Pb 0.2899 -2.8066 -2.4334 0
M  V30 6 Pd -3.6795 0.3995 -3.0159 0
M  V30 7 Pb -3.9580 1.2741 -3.4078 0
M  V30 8 Pb -2.7467 0.7550 -2.9563 0
M  V30 9 Pb -3.4363 -0.4179 -2.4899 0
M  V30 10 Pb -4.6359 0.1141 -2.9884 0
M  V30 11 Pd -3.0781 4.0260 -0.1864 0
M  V30 12 Pb -2.5991 3.8175 0.6661 0
M  V30 13 Pb -2.2719 3.7430 -0.7059 0
M  V30 14 Pb -3.9261 4.1787 0.3231 0
M  V30 15 Pb -3.5459 4.1812 -1.0570 0
M  V30 16 Pd -1.4254 -3.6984 3.6946 0
M  V30 17 Pb -2.0223 -3.1591 4.2900 0
M  V30 18 Pb -0.6194 -3.3001 4.1329 0
M  V30 19 Pb -2.2618 -4.0670 3.2887 0
M  V30 20 Pb -0.8482 -4.2218 3.0624 0
M  V30 21 Pd 2.0980 4.0056 1.2064 0
M  V30 22 Pb 2.9171 4.3410 0.7577 0
M  V30 23 Pb 2.5962 4.0196 2.0709 0
M  V30 24 Pb 1.2606 3.7232 1.6743 0
M  V30 25 Pb 1.6515 3.8811 0.2999 0
M  V30 26 Pd -7.6999 -0.6291 2.5578 0
M  V30 27 Pb -7.4841 -1.6012 2.4773 0
M  V30 28 Pb -7.2119 -0.6400 3.4290 0
M  V30 29 Pb -7.7518 0.3696 2.5742 0
M  V30 30 Pb -8.0386 -0.6358 1.6199 0
M  V30 31 Pd 5.6777 -2.0759 -1.6737 0
M  V30 32 Pb 6.1172 -1.2477 -1.3121 0
M  V30 33 Pb 5.6434 -1.7178 -2.6072 0
M  V30 34 Pb 5.7184 -2.4728 -0.7611 0
M  V30 35 Pb 5.1787 -2.8766 -1.9991 0
M  V30 36 Pd 2.5431 1.2998 -3.9957 0
M  V30 37 Pb 3.1856 0.7031 -4.4687 0
M  V30 38 Pb 1.9523 1.9050 -3.4289 0
M  V30 39 Pb 1.8120 0.6224 -4.1040 0
M  V30 40 Pb 3.2798 1.9605 -3.9223 0
M  V30 41 Pd 5.1225 0.1451 3.0284 0
M  V30 42 Pb 4.5060 -0.2099 3.7286 0
M  V30 43 Pb 5.3148 -0.7961 2.7642 0
M  V30 44 Pb 5.6945 0.4560 2.2638 0
M  V30 45 Pb 4.9288 1.0824 3.3281 0
M  V30 46 Ag -2.5257 -2.7596 4.6779 0
M  V30 47 Fe -4.6350 -1.6810 4.5138 0
M  V30 48 Ag -6.7429 -0.7118 4.0082 0
M  V30 49 Ag -0.0362 -2.9778 4.4780 0
M  V30 50 Fe 1.9940 -1.7501 4.3864 0
M  V30 51 Ag 4.0180 -0.5228 4.2018 0
M  V30 52 Ag -2.9407 -4.2705 3.0433 0
M  V30 53 Fe -5.1329 -3.4377 2.6706 0
M  V30 54 Ag -7.1937 -2.2881 2.4071 0
M  V30 55 Ag -5.3547 -0.0583 -2.8736 0
M  V30 56 Fe -6.9225 -0.3915 -1.1257 0
M  V30 57 Ag -8.1565 -0.6510 0.8826 0
M  V30 58 Ag 3.4853 4.5246 0.3233 0
M  V30 59 Fe 4.0849 3.7799 -1.8243 0
M  V30 60 Ag 3.7905 2.4659 -3.7513 0
M  V30 61 Ag -4.5730 4.1935 0.7045 0
M  V30 62 Fe -6.2221 2.7832 1.6724 0
M  V30 63 Ag -7.6811 1.1152 2.5293 0
M  V30 64 Ba 6.4208 -0.6305 -1.0000 0
M  V30 65 Ga 6.2777 0.0206 0.3241 0
M  V30 66 Ba 6.1072 0.6411 1.6595 0
M  V30 67 Ba 1.8868 -4.0696 -2.1941 0
M  V30 68 Ga 3.3283 -3.7566 -2.2141 0
M  V30 69 Ba 4.7723 -3.4560 -2.2414 0
M  V30 70 Ba -2.2293 3.6315 1.2914 0
M  V30 71 Ga -0.8043 3.5848 1.6692 0
M  V30 72 Ba 0.6252 3.5444 2.0302 0
M  V30 73 Ba 0.1867 -2.3635 -3.0328 0
M  V30 74 Ga 0.7575 -1.1231 -3.5994 0
M  V30 75 Ba 1.2735 0.1115 -4.2279 0
M  V30 76 Ba 5.5866 -1.5061 -3.3252 0
M  V30 77 Ga 4.6731 -0.6244 -4.0725 0
M  V30 78 Ba 3.7271 0.2758 -4.7541 0
M  V30 79 Ba -2.0884 1.1025 -2.8632 0
M  V30 80 Ga -1.8093 2.2778 -2.0165 0
M  V30 81 Ba -1.7213 3.4452 -1.1191 0
M  V30 82 Ba 3.0202 3.9724 2.6854 0
M  V30 83 Ga 3.9000 2.8851 3.1568 0
M  V30 84 Ba 4.7676 1.7710 3.5866 0
M  V30 85 Ba -4.1633 1.9696 -3.5915 0
M  V30 86 Ga -4.0525 3.1619 -2.7331 0
M  V30 87 Ba -3.8589 4.2303 -1.7370 0
M  V30 88 Ba 0.5082 -4.4402 -0.2178 0
M  V30 89 Ga 0.0297 -4.5022 1.1816 0
M  V30 90 Ba -0.4170 -4.6177 2.5881 0
M  V30 91 Ba 5.7525 -2.7598 -0.0734 0
M  V30 92 Ga 5.6078 -2.1587 1.2593 0
M  V30 93 Ba 5.4534 -1.5016 2.5642 0
M  V30 94 Ba 1.3025 3.7770 -0.3763 0
M  V30 95 Ga 1.4671 3.0483 -1.6739 0
M  V30 96 Ba 1.5120 2.3751 -3.0107 0
M  V30 97 Ba -1.2494 -2.9244 -1.1734 0
M  V30 98 Ga -2.2516 -1.9415 -1.6298 0
M  V30 99 Ba -3.3143 -0.9965 -2.0249 0
M  V30 END ATOM
M  V30 BEGIN BOND
M  V30 1 1 1 2
M  V30 2 1 1 3
M  V30 3 1 1 4
M  V30 4 1 1 5
M  V30 5 1 6 7
M  V30 6 1 6 8
M  V30 7 1 6 9
M  V30 8 1 6 10
M  V30 9 1 11 12
M  V30 10 1 11 13
M  V30 11 1 11 14
M  V30 12 1 11 15
M  V30 13 1 16 17
M  V30 14 1 16 18
M  V30 15 1 16 19
M  V30 16 1 16 20
M  V30 17 1 21 22
M  V30 18 1 21 23
M  V30 19 1 21 24
M  V30 20 1 21 25
M  V30 21 1 26 27
M  V30 22 1 26 28
M  V30 23 1 26 29
M  V30 24 1 26 30
M  V30 25 1 31 32
M  V30 26 1 31 33
M  V30 27 1 31 34
M  V30 28 1 31 35
M  V30 29 1 36 37
M  V30 30 1 36 38
M  V30 31 1 36 39
M  V30 32 1 36 40
M  V30 33 1 41 42
M  V30 34 1 41 43
M  V30 35 1 41 44
M  V30 36 1 41 45
M  V30 37 1 46 47
M  V30 38 1 47 48
M  V30 39 1 49 50
M  V30 40 1 50 51
M  V30 41 1 52 53
M  V30 42 1 53 54
M  V30 43 1 55 56
M  V30 44 1 56 57
M  V30 45 1 58 59
M  V30 46 1 59 60
M  V30 47 1 61 62
M  V30 48 1 62 63
M  V30 49 1 64 65
M  V30 50 1 65 66
M  V30 51 1 67 68
M  V30 52 1 68 69
M  V30 53 1 70 71
M  V30 54 1 71 72
M  V30 55 1 73 74
M  V30 56 1 74 75
M  V30 57 1 76 77
M  V30 58 1 77 78
M  V30 59 1 79 80
M  V30 60 1 80 81
M  V30 61 1 82 83
M  V30 62 1 83 84
M  V30 63 1 85 86
M  V30 64 1 86 87
M  V30 65 1 88 89
M  V30 66 1 89 90
M  V30 67 1 91 92
M  V30 68 1 92 93
M  V30 69 1 94 95
M  V30 70 1 95 96
M  V30 71 1 97 98
M  V30 72 1 98 99
M  V30 73 1 2 88
M  V30 74 1 3 67
M  V30 75 1 4 97
M  V30 76 1 5 73
M  V30 77 1 7 85
M  V30 78 1 8 79
M  V30 79 1 9 99
M  V30 80 1 10 55
M  V30 81 1 12 70
M  V30 82 1 13 81
M  V30 83 1 14 61
M  V30 84 1 15 87
M  V30 85 1 17 46
M  V30 86 1 18 49
M  V30 87 1 19 52
M  V30 88 1 20 90
M  V30 89 1 22 58
M  V30 90 1 23 82
M  V30 91 1 24 72
M  V30 92 1 25 94
M  V30 93 1 27 54
M  V30 94 1 28 48
M  V30 95 1 29 63
M  V30 96 1 30 57
M  V30 97 1 32 64
M  V30 98 1 33 76
M  V30 99 1 34 91
M  V30 100 1 35 69
M  V30 101 1 37 78
M  V30 102 1 38 96
M  V30 103 1 39 75
M  V30 104 1 40 60
M  V30 105 1 42 51
M  V30 106 1 43 93
M  V30 107 1 44 66
M  V30 108 1 45 84
M  V30 END BOND
M  V30 END CTAB
M  END

$$$$
