
     RDKit          3D

  0  0  0  0  0  0  0  0  0  0999 V3000
M  V30 BEGIN CTAB
M  V30 COUNTS 99 108 0 0 0
M  V30 BEGIN ATOM
M  V30 1 Pd 1.2404 -4.8338 6.4172 0
M  V30 2 Pb 1.0455 -4.8772 5.4409 0
M  V30 3 Pb 1.4226 -4.6853 7.3882 0
M  V30 4 Pb 0.3013 -5.0771 6.6577 0
M  V30 5 Pb 2.1381 -4.4993 6.1437 0
M  V30 6 Pd -1.3458 -1.5555 8.5541 0
M  V30 7 Pb -0.8446 -0.7021 8.6822 0
M  V30 8 Pb -1.7889 -2.4302 8.3610 0
M  V30 9 Pb -0.6722 -2.0492 9.1037 0
M  V30 10 Pb -1.9678 -1.0762 7.9342 0
M  V30 11 Pd -0.6857 -3.3940 -4.1058 0
M  V30 12 Pb -1.5260 -3.2695 -4.6348 0
M  V30 13 Pb 0.1516 -3.4349 -3.5542 0
M  V30 14 Pb -0.1509 -3.0068 -4.8540 0
M  V30 15 Pb -1.2415 -3.7877 -3.3749 0
M  V30 16 Pd 0.7021 2.8872 -8.0638 0
M  V30 17 Pb 0.4319 3.8472 -8.0686 0
M  V30 18 Pb -0.2574 2.6034 -8.1182 0
M  V30 19 Pb 1.6538 3.1841 -7.9525 0
M  V30 20 Pb 0.9729 1.9290 -8.0134 0
M  V30 21 Pd -2.1622 -1.3960 0.3433 0
M  V30 22 Pb -2.8898 -0.8856 -0.1155 0
M  V30 23 Pb -1.7630 -0.5371 0.6717 0
M  V30 24 Pb -2.5141 -2.2483 -0.0335 0
M  V30 25 Pb -1.4703 -1.9639 0.7847 0
M  V30 26 Pd 0.0361 1.6469 4.8011 0
M  V30 27 Pb 0.2494 1.6808 5.7780 0
M  V30 28 Pb 0.9700 1.9375 4.5823 0
M  V30 29 Pb -0.8886 1.3434 5.0374 0
M  V30 30 Pb -0.1898 1.6474 3.8253 0
M  V30 31 Pd -3.5022 0.9495 -4.6884 0
M  V30 32 Pb -3.8414 0.7142 -3.7755 0
M  V30 33 Pb -3.2788 1.8533 -4.3245 0
M  V30 34 Pb -3.6800 0.0223 -5.0233 0
M  V30 35 Pb -3.2306 1.2151 -5.6194 0
M  V30 36 Pd 3.7253 0.0898 1.2290 0
M  V30 37 Pb 3.7188 0.8323 0.5562 0
M  V30 38 Pb 3.6301 -0.6203 0.5255 0
M  V30 39 Pb 3.8591 -0.6158 1.9261 0
M  V30 40 Pb 3.7515 0.7843 1.9486 0
M  V30 41 Pd 2.0142 5.5737 -4.4026 0
M  V30 42 Pb 2.7536 5.3794 -5.0446 0
M  V30 43 Pb 1.5024 5.9864 -5.1535 0
M  V30 44 Pb 1.1863 5.6239 -3.8517 0
M  V30 45 Pb 2.5223 5.1257 -3.6662 0
M  V30 46 Ag 0.2418 -2.7056 -5.4145 0
M  V30 47 Fe 0.7397 -0.7847 -6.7137 0
M  V30 48 Ag 1.1462 1.2067 -7.9360 0
M  V30 49 Ag 3.8057 1.4367 0.1169 0
M  V30 50 Fe 3.2709 3.0648 -1.5298 0
M  V30 51 Ag 2.9271 4.7842 -3.1343 0
M  V30 52 Ag -3.0757 2.4995 -4.0030 0
M  V30 53 Fe -1.3683 4.1148 -3.6797 0
M  V30 54 Ag 0.5051 5.5646 -3.5538 0
M  V30 55 Ag 2.7506 -4.1994 5.8396 0
M  V30 56 Fe 3.4388 -2.6631 4.1656 0
M  V30 57 Ag 4.0232 -1.1116 2.4661 0
M  V30 58 Ag 0.9562 -4.8216 4.7014 0
M  V30 59 Fe -0.0332 -3.6546 2.8879 0
M  V30 60 Ag -1.0164 -2.4854 1.0724 0
M  V30 61 Ag 0.7954 -3.4115 -3.1629 0
M  V30 62 Fe 2.1691 -2.3041 -1.5661 0
M  V30 63 Ag 3.5286 -1.1822 0.0326 0
M  V30 64 Ba -2.3875 -0.7048 7.4349 0
M  V30 65 Ga -2.0159 0.2059 6.3334 0
M  V30 66 Ba -1.5689 1.1066 5.2520 0
M  V30 67 Ba 1.4883 -4.5096 8.1133 0
M  V30 68 Ga 0.7162 -3.5017 8.8614 0
M  V30 69 Ba -0.1457 -2.4588 9.4457 0
M  V30 70 Ba 2.3485 3.4461 -7.8259 0
M  V30 71 Ga 2.8643 4.3014 -6.7380 0
M  V30 72 Ba 3.2191 5.1548 -5.5864 0
M  V30 73 Ba -0.4119 -5.1756 6.8650 0
M  V30 74 Ga -1.3002 -4.2046 7.5281 0
M  V30 75 Ba -2.0408 -3.1138 8.1862 0
M  V30 76 Ba -1.4675 0.1309 0.8520 0
M  V30 77 Ga -0.9160 0.8619 2.0114 0
M  V30 78 Ba -0.3453 1.6927 3.0915 0
M  V30 79 Ba -0.4500 -0.0674 8.7157 0
M  V30 80 Ga -0.0155 0.8457 7.6435 0
M  V30 81 Ba 0.3805 1.7089 6.5164 0
M  V30 82 Ba -2.1672 -3.1370 -5.0024 0
M  V30 83 Ga -2.9916 -1.9213 -5.1565 0
M  V30 84 Ba -3.7789 -0.6776 -5.2792 0
M  V30 85 Ba 1.6742 2.1508 4.4264 0
M  V30 86 Ga 2.7104 1.7322 3.4608 0
M  V30 87 Ba 3.7376 1.3040 2.4898 0
M  V30 88 Ba -3.4608 -0.5354 -0.4534 0
M  V30 89 Ga -3.7582 0.0197 -1.7888 0
M  V30 90 Ba -4.1367 0.5966 -3.0941 0
M  V30 91 Ba -1.7018 -4.0623 -2.8514 0
M  V30 92 Ga -2.2288 -3.5208 -1.5886 0
M  V30 93 Ba -2.7018 -2.9019 -0.3403 0
M  V30 94 Ba 0.2725 4.5743 -8.0073 0
M  V30 95 Ga 0.6500 5.4814 -6.9138 0
M  V30 96 Ba 1.1121 6.2364 -5.7402 0
M  V30 97 Ba -0.9780 2.3908 -8.1538 0
M  V30 98 Ga -2.0048 1.8960 -7.2098 0
M  V30 99 Ba -3.0927 1.3969 -6.3395 0
M  V30 END ATOM
M  V30 BEGIN BOND
M  V30 1 1 1 2
M  V30 2 1 1 3
M  V30 3 1 1 4
M  V30 4 1 1 5
M  V30 5 1 6 7
M  V30 6 1 6 8
M  V30 7 1 6 9
M  V30 8 1 6 10
M  V30 9 1 11 12
M  V30 10 1 11 13
M  V30 11 1 11 14
M  V30 12 1 11 15
M  V30 13 1 16 17
M  V30 14 1 16 18
M  V30 15 1 16 19
M  V30 16 1 16 20
M  V30 17 1 21 22
M  V30 18 1 21 23
M  V30 19 1 21 24
M  V30 20 1 21 25
M  V30 21 1 26 27
M  V30 22 1 26 28
M  V30 23 1 26 29
M  V30 24 1 26 30
M  V30 25 1 31 32
M  V30 26 1 31 33
M  V30 27 1 31 34
M  V30 28 1 31 35
M  V30 29 1 36 37
M  V30 30 1 36 38
M  V30 31 1 36 39
M  V30 32 1 36 40
M  V30 33 1 41 42
M  V30 34 1 41 43
M  V30 35 1 41 44
M  V30 36 1 41 45
M  V30 37 1 46 47
M  V30 38 1 47 48
M  V30 39 1 49 50
M  V30 40 1 50 51
M  V30 41 1 52 53
M  V30 42 1 53 54
M  V30 43 1 55 56
M  V30 44 1 56 57
M  V30 45 1 58 59
M  V30 46 1 59 60
M  V30 47 1 61 62
M  V30 48 1 62 63
M  V30 49 1 64 65
M  V30 50 1 65 66
M  V30 51 1 67 68
M  V30 52 1 68 69
M  V30 53 1 70 71
M  V30 54 1 71 72
M  V30 55 1 73 74
M  V30 56 1 74 75
M  V30 57 1 76 77
M  V30 58 1 77 78
M  V30 59 1 79 80
M  V30 60 1 80 81
M  V30 61 1 82 83
M  V30 62 1 83 84
M  V30 63 1 85 86
M  V30 64 1 86 87
M  V30 65 1 88 89
M  V30 66 1 89 90
M  V30 67 1 91 92
M  V30 68 1 92 93
M  V30 69 1 94 95
M  V30 70 1 95 96
M  V30 71 1 97 98
M  V30 72 1 98 99
M  V30 73 1 2 58
M  V30 74 1 3 67
M  V30 75 1 4 73
M  V30 76 1 5 55
M  V30 77 1 7 79
M  V30 78 1 8 75
M  V30 79 1 9 69
M  V30 80 1 10 64
M  V30 81 1 12 82
M  V30 82 1 13 61
M  V30 83 1 14 46
M  V30 84 1 15 91
M  V30 85 1 17 94
M  V30 86 1 18 97
M  V30 87 1 19 70
M  V30 88 1 20 48
M  V30 89 1 22 88
M  V30 90 1 23 76
M  V30 91 1 24 93
M  V30 92 1 25 60
M  V30 93 1 27 81
M  V30 94 1 28 85
M  V30 95 1 29 66
M  V30 96 1 30 78
M  V30 97 1 32 90
M  V30 98 1 33 52
M  V30 99 1 34 84
M  V30 100 1 35 99
M  V30 101 1 37 49
M  V30 102 1 38 63
M  V30 103 1 39 57
M  V30 104 1 40 87
M  V30 105 1 42 72
M  V30 106 1 43 96
M  V30 107 1 44 54
M  V30 108 1 45 51
M  V30 END BOND
M  V30 END CTAB
M  END

$$$$
