
     RDKit          3D

  0  0  0  0  0  0  0  0  0  0999 V3000
M  V30 BEGIN CTAB
M  V30 COUNTS 99 108 0 0 0
M  V30 BEGIN ATOM
M  V30 1 Pd -3.2943 -2.2500 2.1073 0
M  V30 2 Pb -2.6265 -2.7848 2.6300 0
M  V30 3 Pb -3.4759 -1.7522 2.9520 0
M  V30 4 Pb -3.2046 -2.8403 1.3047 0
M  V30 5 Pb -3.9083 -1.6602 1.5761 0
M  V30 6 Pd -2.2352 -3.6133 -5.4469 0
M  V30 7 Pb -1.8036 -3.1620 -6.2405 0
M  V30 8 Pb -2.8009 -2.8015 -5.3216 0
M  V30 9 Pb -2.5680 -4.0006 -4.5892 0
M  V30 10 Pb -1.6022 -4.3802 -5.5402 0
M  V30 11 Pd 1.7147 0.1349 -6.0352 0
M  V30 12 Pb 2.2346 0.5264 -5.2794 0
M  V30 13 Pb 0.9423 0.7389 -5.8523 0
M  V30 14 Pb 2.4606 -0.5136 -6.1853 0
M  V30 15 Pb 1.1356 -0.3665 -6.6917 0
M  V30 16 Pd 1.9982 -2.5842 1.9199 0
M  V30 17 Pb 1.4373 -3.0775 1.2570 0
M  V30 18 Pb 2.6009 -2.1431 2.5933 0
M  V30 19 Pb 2.6135 -2.2973 1.1838 0
M  V30 20 Pb 1.3594 -2.9030 2.6211 0
M  V30 21 Pd 1.5566 3.9882 -1.7776 0
M  V30 22 Pb 1.2117 4.8635 -1.4666 0
M  V30 23 Pb 2.4056 4.1578 -1.2832 0
M  V30 24 Pb 1.9851 3.1629 -2.1410 0
M  V30 25 Pb 0.6195 3.7242 -2.0907 0
M  V30 26 Pd 2.4501 -3.9690 -3.2995 0
M  V30 27 Pb 2.9308 -3.3388 -2.6857 0
M  V30 28 Pb 1.8099 -4.1915 -2.5668 0
M  V30 29 Pb 3.0449 -3.6930 -4.0537 0
M  V30 30 Pb 1.9659 -4.6005 -3.9069 0
M  V30 31 Pd -1.4326 3.0158 7.0799 0
M  V30 32 Pb -0.7665 3.7455 6.9231 0
M  V30 33 Pb -2.1659 3.4791 6.5843 0
M  V30 34 Pb -0.7121 2.4817 7.5176 0
M  V30 35 Pb -2.0563 2.2432 7.1149 0
M  V30 36 Pd -3.9001 3.1748 0.2210 0
M  V30 37 Pb -4.3408 3.3235 1.1039 0
M  V30 38 Pb -3.3161 3.0780 -0.6141 0
M  V30 39 Pb -4.2313 2.2259 0.1757 0
M  V30 40 Pb -3.6591 4.1343 0.2697 0
M  V30 41 Pd 3.1411 2.1267 5.1022 0
M  V30 42 Pb 3.4962 1.2238 4.8457 0
M  V30 43 Pb 2.7644 1.7416 5.9436 0
M  V30 44 Pb 2.7514 3.0133 5.3660 0
M  V30 45 Pb 3.5357 2.5375 4.2786 0
M  V30 46 Ag -3.6095 -1.4590 3.6268 0
M  V30 47 Fe -3.1242 0.0734 5.3688 0
M  V30 48 Ag -2.5246 1.6753 7.0092 0
M  V30 49 Ag -2.7599 3.6974 6.1823 0
M  V30 50 Fe -3.7644 3.6674 4.0313 0
M  V30 51 Ag -4.5480 3.5241 1.7948 0
M  V30 52 Ag -3.0419 -2.1026 -5.2500 0
M  V30 53 Fe -1.7644 -0.1260 -5.3937 0
M  V30 54 Ag 0.2699 1.0230 -5.7128 0
M  V30 55 Ag 2.9783 4.2009 -0.8051 0
M  V30 56 Fe 3.5175 3.5801 1.4223 0
M  V30 57 Ag 3.8229 2.8641 3.6657 0
M  V30 58 Ag -3.2178 -3.3064 0.7164 0
M  V30 59 Fe -2.9879 -3.7898 -1.5972 0
M  V30 60 Ag -2.7507 -4.2626 -3.9122 0
M  V30 61 Ag 0.8576 5.4610 -1.2206 0
M  V30 62 Fe -1.3108 5.7009 -0.3553 0
M  V30 63 Ag -3.3919 4.8212 0.2809 0
M  V30 64 Ba -0.2157 4.2305 6.7649 0
M  V30 65 Ga 1.1190 3.9897 6.1760 0
M  V30 66 Ba 2.4332 3.6612 5.5831 0
M  V30 67 Ba 1.0268 -3.4843 0.7808 0
M  V30 68 Ga 1.1659 -3.9060 -0.6236 0
M  V30 69 Ba 1.3082 -4.3255 -2.0283 0
M  V30 70 Ba 3.1055 -1.8581 3.0780 0
M  V30 71 Ga 3.3863 -0.6329 3.8606 0
M  V30 72 Ba 3.7646 0.5389 4.6831 0
M  V30 73 Ba 2.6153 0.7330 -4.6698 0
M  V30 74 Ga 2.4679 1.6869 -3.5568 0
M  V30 75 Ba 2.4066 2.6026 -2.4045 0
M  V30 76 Ba -4.3512 -1.2340 1.1400 0
M  V30 77 Ga -4.4078 0.1685 0.6670 0
M  V30 78 Ba -4.5543 1.5435 0.1361 0
M  V30 79 Ba 3.0651 -2.0951 0.6183 0
M  V30 80 Ga 3.1783 -2.4807 -0.8036 0
M  V30 81 Ba 3.2923 -2.8657 -2.2257 0
M  V30 82 Ba -1.0873 -4.9221 -5.5832 0
M  V30 83 Ga 0.2562 -5.0281 -4.9843 0
M  V30 84 Ba 1.5897 -5.0709 -4.3556 0
M  V30 85 Ba -1.4614 -2.8049 -6.8176 0
M  V30 86 Ga -0.3886 -1.7847 -6.9712 0
M  V30 87 Ba 0.6813 -0.7656 -7.1511 0
M  V30 88 Ba -2.1124 -3.1259 3.0616 0
M  V30 89 Ga -0.6349 -3.1639 3.0870 0
M  V30 90 Ba 0.8431 -3.1862 3.0877 0
M  V30 91 Ba -0.1544 2.0655 7.7917 0
M  V30 92 Ga 1.1691 1.7497 7.2286 0
M  V30 93 Ba 2.4683 1.4926 6.5849 0
M  V30 94 Ba -0.0922 3.5013 -2.2955 0
M  V30 95 Ga -1.4616 3.2881 -1.7101 0
M  V30 96 Ba -2.8701 3.0363 -1.2454 0
M  V30 97 Ba 3.0044 -1.0251 -6.2535 0
M  V30 98 Ga 3.2761 -2.2467 -5.4742 0
M  V30 99 Ba 3.4527 -3.4424 -4.6303 0
M  V30 END ATOM
M  V30 BEGIN BOND
M  V30 1 1 1 2
M  V30 2 1 1 3
M  V30 3 1 1 4
M  V30 4 1 1 5
M  V30 5 1 6 7
M  V30 6 1 6 8
M  V30 7 1 6 9
M  V30 8 1 6 10
M  V30 9 1 11 12
M  V30 10 1 11 13
M  V30 11 1 11 14
M  V30 12 1 11 15
M  V30 13 1 16 17
M  V30 14 1 16 18
M  V30 15 1 16 19
M  V30 16 1 16 20
M  V30 17 1 21 22
M  V30 18 1 21 23
M  V30 19 1 21 24
M  V30 20 1 21 25
M  V30 21 1 26 27
M  V30 22 1 26 28
M  V30 23 1 26 29
M  V30 24 1 26 30
M  V30 25 1 31 32
M  V30 26 1 31 33
M  V30 27 1 31 34
M  V30 28 1 31 35
M  V30 29 1 36 37
M  V30 30 1 36 38
M  V30 31 1 36 39
M  V30 32 1 36 40
M  V30 33 1 41 42
M  V30 34 1 41 43
M  V30 35 1 41 44
M  V30 36 1 41 45
M  V30 37 1 46 47
M  V30 38 1 47 48
M  V30 39 1 49 50
M  V30 40 1 50 51
M  V30 41 1 52 53
M  V30 42 1 53 54
M  V30 43 1 55 56
M  V30 44 1 56 57
M  V30 45 1 58 59
M  V30 46 1 59 60
M  V30 47 1 61 62
M  V30 48 1 62 63
M  V30 49 1 64 65
M  V30 50 1 65 66
M  V30 51 1 67 68
M  V30 52 1 68 69
M  V30 53 1 70 71
M  V30 54 1 71 72
M  V30 55 1 73 74
M  V30 56 1 74 75
M  V30 57 1 76 77
M  V30 58 1 77 78
M  V30 59 1 79 80
M  V30 60 1 80 81
M  V30 61 1 82 83
M  V30 62 1 83 84
M  V30 63 1 85 86
M  V30 64 1 86 87
M  V30 65 1 88 89
M  V30 66 1 89 90
M  V30 67 1 91 92
M  V30 68 1 92 93
M  V30 69 1 94 95
M  V30 70 1 95 96
M  V30 71 1 97 98
M  V30 72 1 98 99
M  V30 73 1 2 88
M  V30 74 1 3 46
M  V30 75 1 4 58
M  V30 76 1 5 76
M  V30 77 1 7 85
M  V30 78 1 8 52
M  V30 79 1 9 60
M  V30 80 1 10 82
M  V30 81 1 12 73
M  V30 82 1 13 54
M  V30 83 1 14 97
M  V30 84 1 15 87
M  V30 85 1 17 67
M  V30 86 1 18 70
M  V30 87 1 19 79
M  V30 88 1 20 90
M  V30 89 1 22 61
M  V30 90 1 23 55
M  V30 91 1 24 75
M  V30 92 1 25 94
M  V30 93 1 27 81
M  V30 94 1 28 69
M  V30 95 1 29 99
M  V30 96 1 30 84
M  V30 97 1 32 64
M  V30 98 1 33 49
M  V30 99 1 34 91
M  V30 100 1 35 48
M  V30 101 1 37 51
M  V30 102 1 38 96
M  V30 103 1 39 78
M  V30 104 1 40 63
M  V30 105 1 42 72
M  V30 106 1 43 93
M  V30 107 1 44 66
M  V30 108 1 45 57
M  V30 END BOND
M  V30 END CTAB
M  END

$$$$
