
     RDKit          3D

  0  0  0  0  0  0  0  0  0  0999 V3000
M  V30 BEGIN CTAB
M  V30 COUNTS 99 108 0 0 0
M  V30 BEGIN ATOM
M  V30 1 Pd -3.3626 1.8447 -1.5830 0
M  V30 2 Pb -3.0274 2.2759 -2.4222 0
M  V30 3 Pb -2.7037 2.4304 -1.1095 0
M  V30 4 Pb -4.0283 1.2800 -2.0762 0
M  V30 5 Pb -3.6784 1.4210 -0.7318 0
M  V30 6 Pd 2.8896 4.9956 6.5263 0
M  V30 7 Pb 3.3776 4.1943 6.1745 0
M  V30 8 Pb 2.3722 5.7916 6.8391 0
M  V30 9 Pb 2.4091 4.4309 7.1949 0
M  V30 10 Pb 3.2609 5.5624 5.7907 0
M  V30 11 Pd 3.8585 -2.5495 -2.8457 0
M  V30 12 Pb 3.6562 -2.8772 -3.7558 0
M  V30 13 Pb 4.1836 -2.2292 -1.9501 0
M  V30 14 Pb 4.1747 -3.4810 -2.6655 0
M  V30 15 Pb 3.4920 -1.6202 -3.0860 0
M  V30 16 Pd 1.0275 -6.9458 -2.6331 0
M  V30 17 Pb 2.0137 -6.8018 -2.7348 0
M  V30 18 Pb 0.0425 -7.0497 -2.5064 0
M  V30 19 Pb 1.1708 -6.8869 -1.6495 0
M  V30 20 Pb 0.8378 -6.9316 -3.6175 0
M  V30 21 Pd 3.1366 -2.0712 2.9529 0
M  V30 22 Pb 3.4776 -1.2286 3.3774 0
M  V30 23 Pb 3.7636 -1.9231 2.1842 0
M  V30 24 Pb 2.8426 -2.9512 2.5850 0
M  V30 25 Pb 2.4723 -2.2058 3.6874 0
M  V30 26 Pd -4.5120 -4.0910 -6.0285 0
M  V30 27 Pb -4.5338 -4.7398 -5.2715 0
M  V30 28 Pb -4.4127 -3.3945 -6.7356 0
M  V30 29 Pb -5.1141 -3.4574 -5.5454 0
M  V30 30 Pb -3.7764 -4.6505 -6.4164 0
M  V30 31 Pd 0.0875 1.0134 -6.0369 0
M  V30 32 Pb -0.3958 1.7244 -5.5235 0
M  V30 33 Pb -0.6760 0.9696 -6.6761 0
M  V30 34 Pb 0.8421 0.9332 -5.3467 0
M  V30 35 Pb 0.5068 0.3126 -6.5939 0
M  V30 36 Pd -3.0130 0.8189 6.0471 0
M  V30 37 Pb -2.5145 -0.0435 6.1029 0
M  V30 38 Pb -3.4160 1.7249 5.9287 0
M  V30 39 Pb -2.4532 1.1495 6.8057 0
M  V30 40 Pb -3.4990 0.5171 5.2277 0
M  V30 41 Pd -0.2383 6.9968 3.6336 0
M  V30 42 Pb -0.1337 7.4205 4.5309 0
M  V30 43 Pb -0.2975 6.4912 2.7732 0
M  V30 44 Pb -1.1717 6.7306 3.8689 0
M  V30 45 Pb 0.7319 7.1764 3.4658 0
M  V30 46 Ag 3.7391 3.5982 5.8924 0
M  V30 47 Fe 3.7133 1.4875 4.7973 0
M  V30 48 Ag 3.7842 -0.6246 3.7070 0
M  V30 49 Ag 1.9336 -2.3214 4.1957 0
M  V30 50 Fe -0.0689 -1.5522 5.2116 0
M  V30 51 Ag -2.0589 -0.6361 6.1249 0
M  V30 52 Ag 1.2961 -6.7817 -0.9220 0
M  V30 53 Fe 1.9568 -5.2198 0.7359 0
M  V30 54 Ag 2.6215 -3.6326 2.3680 0
M  V30 55 Ag -0.7041 -7.0816 -2.4721 0
M  V30 56 Fe -2.6805 -6.2430 -3.4799 0
M  V30 57 Ag -4.4321 -5.2179 -4.7067 0
M  V30 58 Ag 3.5011 -3.0352 -4.4573 0
M  V30 59 Fe 2.2334 -1.9570 -6.1118 0
M  V30 60 Ag 0.8240 -0.2645 -6.9212 0
M  V30 61 Ag 0.5811 -6.8840 -4.3238 0
M  V30 62 Fe -1.2328 -6.0258 -5.6016 0
M  V30 63 Ag -3.1639 -5.0515 -6.5919 0
M  V30 64 Ag 1.9660 4.0201 7.6366 0
M  V30 65 Fe 0.0053 2.6829 7.6199 0
M  V30 66 Ag -1.9663 1.3967 7.3183 0
M  V30 67 Ag -4.5394 0.8463 -2.4185 0
M  V30 68 Fe -5.0768 -1.0231 -3.7838 0
M  V30 69 Ag -5.4673 -2.9177 -5.1640 0
M  V30 70 Ag -3.9339 1.0816 -0.1115 0
M  V30 71 Fe -3.8971 0.6943 2.2324 0
M  V30 72 Ag -3.8293 0.3347 4.5800 0
M  V30 73 Ag -3.6432 2.4220 5.7784 0
M  V30 74 Fe -2.8800 4.5105 4.9495 0
M  V30 75 Ag -1.8321 6.4610 4.0961 0
M  V30 76 Ag -2.1884 2.9068 -0.8423 0
M  V30 77 Fe -1.3035 4.4856 0.6962 0
M  V30 78 Ag -0.3000 6.0737 2.1502 0
M  V30 79 Ag -4.2908 -2.8063 -7.1795 0
M  V30 80 Fe -2.8713 -0.9154 -7.3439 0
M  V30 81 Ag -1.2497 0.7987 -7.1214 0
M  V30 82 Ba -2.7313 2.6549 -2.9998 0
M  V30 83 Ga -1.7659 2.4208 -4.0933 0
M  V30 84 Ba -0.8109 2.2670 -5.2098 0
M  V30 85 Ba 3.2457 -0.9017 -3.2478 0
M  V30 86 Ga 2.2882 -0.0874 -4.0768 0
M  V30 87 Ba 1.4072 0.8830 -4.8181 0
M  V30 88 Ba 3.4422 6.0046 5.2125 0
M  V30 89 Ga 2.5263 6.6691 4.2650 0
M  V30 90 Ba 1.4763 7.2570 3.4104 0
M  V30 91 Ba 1.9574 6.3911 7.0129 0
M  V30 92 Ga 0.9627 7.0930 6.1849 0
M  V30 93 Ba 0.0078 7.6667 5.2225 0
M  V30 94 Ba 4.3725 -4.2038 -2.6188 0
M  V30 95 Ga 3.5845 -5.4527 -2.6691 0
M  V30 96 Ba 2.7552 -6.6744 -2.7233 0
M  V30 97 Ba 4.5133 -1.9886 -1.3147 0
M  V30 98 Ga 4.3136 -1.9114 0.1496 0
M  V30 99 Ba 4.2403 -1.7725 1.6214 0
M  V30 END ATOM
M  V30 BEGIN BOND
M  V30 1 1 1 2
M  V30 2 1 1 3
M  V30 3 1 1 4
M  V30 4 1 1 5
M  V30 5 1 6 7
M  V30 6 1 6 8
M  V30 7 1 6 9
M  V30 8 1 6 10
M  V30 9 1 11 12
M  V30 10 1 11 13
M  V30 11 1 11 14
M  V30 12 1 11 15
M  V30 13 1 16 17
M  V30 14 1 16 18
M  V30 15 1 16 19
M  V30 16 1 16 20
M  V30 17 1 21 22
M  V30 18 1 21 23
M  V30 19 1 21 24
M  V30 20 1 21 25
M  V30 21 1 26 27
M  V30 22 1 26 28
M  V30 23 1 26 29
M  V30 24 1 26 30
M  V30 25 1 31 32
M  V30 26 1 31 33
M  V30 27 1 31 34
M  V30 28 1 31 35
M  V30 29 1 36 37
M  V30 30 1 36 38
M  V30 31 1 36 39
M  V30 32 1 36 40
M  V30 33 1 41 42
M  V30 34 1 41 43
M  V30 35 1 41 44
M  V30 36 1 41 45
M  V30 37 1 46 47
M  V30 38 1 47 48
M  V30 39 1 49 50
M  V30 40 1 50 51
M  V30 41 1 52 53
M  V30 42 1 53 54
M  V30 43 1 55 56
M  V30 44 1 56 57
M  V30 45 1 58 59
M  V30 46 1 59 60
M  V30 47 1 61 62
M  V30 48 1 62 63
M  V30 49 1 64 65
M  V30 50 1 65 66
M  V30 51 1 67 68
M  V30 52 1 68 69
M  V30 53 1 70 71
M  V30 54 1 71 72
M  V30 55 1 73 74
M  V30 56 1 74 75
M  V30 57 1 76 77
M  V30 58 1 77 78
M  V30 59 1 79 80
M  V30 60 1 80 81
M  V30 61 1 82 83
M  V30 62 1 83 84
M  V30 63 1 85 86
M  V30 64 1 86 87
M  V30 65 1 88 89
M  V30 66 1 89 90
M  V30 67 1 91 92
M  V30 68 1 92 93
M  V30 69 1 94 95
M  V30 70 1 95 96
M  V30 71 1 97 98
M  V30 72 1 98 99
M  V30 73 1 2 82
M  V30 74 1 3 76
M  V30 75 1 4 67
M  V30 76 1 5 70
M  V30 77 1 7 46
M  V30 78 1 8 91
M  V30 79 1 9 64
M  V30 80 1 10 88
M  V30 81 1 12 58
M  V30 82 1 13 97
M  V30 83 1 14 94
M  V30 84 1 15 85
M  V30 85 1 17 96
M  V30 86 1 18 55
M  V30 87 1 19 52
M  V30 88 1 20 61
M  V30 89 1 22 48
M  V30 90 1 23 99
M  V30 91 1 24 54
M  V30 92 1 25 49
M  V30 93 1 27 57
M  V30 94 1 28 79
M  V30 95 1 29 69
M  V30 96 1 30 63
M  V30 97 1 32 84
M  V30 98 1 33 81
M  V30 99 1 34 87
M  V30 100 1 35 60
M  V30 101 1 37 51
M  V30 102 1 38 73
M  V30 103 1 39 66
M  V30 104 1 40 72
M  V30 105 1 42 93
M  V30 106 1 43 78
M  V30 107 1 44 75
M  V30 108 1 45 90
M  V30 END BOND
M  V30 END CTAB
M  END

$$$$
