
     RDKit          3D

  0  0  0  0  0  0  0  0  0  0999 V3000
M  V30 BEGIN CTAB
M  V30 COUNTS 99 108 0 0 0
M  V30 BEGIN ATOM
M  V30 1 Pd 5.1125 -0.5736 2.5495 0
M  V30 2 Pb 4.9214 0.3991 2.6883 0
M  V30 3 Pb 4.7435 -0.7725 3.4580 0
M  V30 4 Pb 5.5526 -0.4022 1.6644 0
M  V30 5 Pb 5.1869 -1.5582 2.4044 0
M  V30 6 Pd -5.5065 -2.4243 4.1173 0
M  V30 7 Pb -5.4285 -1.7017 3.4293 0
M  V30 8 Pb -5.1946 -1.7921 4.8260 0
M  V30 9 Pb -5.5720 -3.1626 3.4525 0
M  V30 10 Pb -5.5007 -3.1385 4.8102 0
M  V30 11 Pd -2.8653 4.2413 -3.0548 0
M  V30 12 Pb -2.6818 4.2708 -2.0684 0
M  V30 13 Pb -3.6684 3.6589 -2.9024 0
M  V30 14 Pb -3.0269 4.2203 -4.0450 0
M  V30 15 Pb -2.1005 4.8679 -3.1998 0
M  V30 16 Pd -0.4915 1.8844 -7.3336 0
M  V30 17 Pb -1.2580 2.5232 -7.2422 0
M  V30 18 Pb 0.1627 2.6241 -7.4814 0
M  V30 19 Pb -1.1064 1.1299 -7.1189 0
M  V30 20 Pb 0.2916 1.2612 -7.3582 0
M  V30 21 Pd -4.0914 -0.8389 -1.3891 0
M  V30 22 Pb -4.3019 -0.6148 -0.4355 0
M  V30 23 Pb -4.6535 -0.0584 -1.6622 0
M  V30 24 Pb -3.9147 -1.0279 -2.3526 0
M  V30 25 Pb -3.4543 -1.5780 -1.1625 0
M  V30 26 Pd 6.0041 2.4699 -4.6115 0
M  V30 27 Pb 5.5322 3.0545 -5.2704 0
M  V30 28 Pb 6.1953 3.2699 -4.0496 0
M  V30 29 Pb 6.3876 1.8750 -3.9043 0
M  V30 30 Pb 5.6687 1.6909 -5.1396 0
M  V30 31 Pd 1.4566 5.5572 -0.1757 0
M  V30 32 Pb 1.8839 5.1660 0.6401 0
M  V30 33 Pb 2.3738 5.8038 -0.4824 0
M  V30 34 Pb 1.0717 5.9112 -1.0267 0
M  V30 35 Pb 0.5383 5.2668 0.1030 0
M  V30 36 Pd 0.2327 -6.1522 2.5240 0
M  V30 37 Pb 0.0392 -5.6912 1.6595 0
M  V30 38 Pb 0.4286 -6.5634 3.4187 0
M  V30 39 Pb -0.7552 -6.3129 2.5585 0
M  V30 40 Pb 1.2100 -5.9605 2.4299 0
M  V30 41 Pd 0.1305 -4.1742 7.3806 0
M  V30 42 Pb -0.3742 -3.3250 7.5527 0
M  V30 43 Pb 0.9710 -3.6537 7.2302 0
M  V30 44 Pb 0.5481 -5.0352 7.0869 0
M  V30 45 Pb -0.7329 -4.6537 7.5041 0
M  V30 46 Ag 4.7002 1.1070 2.8077 0
M  V30 47 Fe 3.4970 3.0077 2.0417 0
M  V30 48 Ag 2.2768 4.8680 1.2065 0
M  V30 49 Ag -2.9279 -2.1109 -1.0943 0
M  V30 50 Fe -1.5632 -3.7117 0.0103 0
M  V30 51 Ag -0.1592 -5.3335 1.0321 0
M  V30 52 Ag -1.5541 0.5756 -6.8957 0
M  V30 53 Fe -2.7025 -0.3514 -5.0397 0
M  V30 54 Ag -3.7823 -1.1373 -3.0801 0
M  V30 55 Ag 0.7313 3.1078 -7.5344 0
M  V30 56 Fe 2.9407 3.4327 -6.7314 0
M  V30 57 Ag 5.0975 3.4424 -5.7412 0
M  V30 58 Ag -5.3737 -3.6628 5.3224 0
M  V30 59 Fe -3.5384 -4.4903 6.5652 0
M  V30 60 Ag -1.4253 -4.9241 7.5372 0
M  V30 61 Ag -4.8111 -1.4484 5.3718 0
M  V30 62 Fe -2.8340 -1.8934 6.6146 0
M  V30 63 Ag -0.8380 -2.7334 7.5961 0
M  V30 64 Ag 0.9223 0.8541 -7.3319 0
M  V30 65 Fe 3.1488 0.8554 -6.5045 0
M  V30 66 Ag 5.2953 1.1801 -5.5409 0
M  V30 67 Ag -5.4478 -3.8014 3.0855 0
M  V30 68 Fe -3.5706 -5.1994 2.6816 0
M  V30 69 Ag -1.5009 -6.3452 2.4630 0
M  V30 70 Ag 5.9298 -0.3127 1.0185 0
M  V30 71 Fe 6.2656 0.5733 -1.1619 0
M  V30 72 Ag 6.6350 1.4397 -3.3449 0
M  V30 73 Ag 5.1450 -2.3003 2.3191 0
M  V30 74 Fe 3.6160 -4.1162 2.3164 0
M  V30 75 Ag 1.9374 -5.7947 2.3513 0
M  V30 76 Ag 4.5125 -0.9547 4.1487 0
M  V30 77 Fe 3.0358 -2.0924 5.6211 0
M  V30 78 Ag 1.5722 -3.2202 7.1142 0
M  V30 79 Ag 6.2068 3.8705 -3.6075 0
M  V30 80 Fe 4.7672 5.0314 -2.1246 0
M  V30 81 Ag 3.0713 5.9191 -0.7259 0
M  V30 82 Ba -5.3308 -1.1156 2.9703 0
M  V30 83 Ga -4.9123 -0.8133 1.5865 0
M  V30 84 Ba -4.5126 -0.3586 0.2395 0
M  V30 85 Ba -1.5442 5.3611 -3.2938 0
M  V30 86 Ga -0.3729 5.7617 -2.4942 0
M  V30 87 Ba 0.7932 6.1481 -1.6802 0
M  V30 88 Ba -2.5305 4.3037 -1.3308 0
M  V30 89 Ga -1.3478 4.6710 -0.5209 0
M  V30 90 Ba -0.1582 5.0408 0.2776 0
M  V30 91 Ba -3.1388 4.2213 -4.7902 0
M  V30 92 Ga -2.4880 3.6034 -5.9657 0
M  V30 93 Ba -1.8411 2.9879 -7.1447 0
M  V30 94 Ba 0.6427 -6.8358 4.0888 0
M  V30 95 Ga 0.7200 -6.2849 5.4599 0
M  V30 96 Ba 0.7785 -5.6978 6.8168 0
M  V30 97 Ba -4.2949 3.2551 -2.7901 0
M  V30 98 Ga -4.6588 1.8973 -2.3345 0
M  V30 99 Ba -5.0427 0.5441 -1.8816 0
M  V30 END ATOM
M  V30 BEGIN BOND
M  V30 1 1 1 2
M  V30 2 1 1 3
M  V30 3 1 1 4
M  V30 4 1 1 5
M  V30 5 1 6 7
M  V30 6 1 6 8
M  V30 7 1 6 9
M  V30 8 1 6 10
M  V30 9 1 11 12
M  V30 10 1 11 13
M  V30 11 1 11 14
M  V30 12 1 11 15
M  V30 13 1 16 17
M  V30 14 1 16 18
M  V30 15 1 16 19
M  V30 16 1 16 20
M  V30 17 1 21 22
M  V30 18 1 21 23
M  V30 19 1 21 24
M  V30 20 1 21 25
M  V30 21 1 26 27
M  V30 22 1 26 28
M  V30 23 1 26 29
M  V30 24 1 26 30
M  V30 25 1 31 32
M  V30 26 1 31 33
M  V30 27 1 31 34
M  V30 28 1 31 35
M  V30 29 1 36 37
M  V30 30 1 36 38
M  V30 31 1 36 39
M  V30 32 1 36 40
M  V30 33 1 41 42
M  V30 34 1 41 43
M  V30 35 1 41 44
M  V30 36 1 41 45
M  V30 37 1 46 47
M  V30 38 1 47 48
M  V30 39 1 49 50
M  V30 40 1 50 51
M  V30 41 1 52 53
M  V30 42 1 53 54
M  V30 43 1 55 56
M  V30 44 1 56 57
M  V30 45 1 58 59
M  V30 46 1 59 60
M  V30 47 1 61 62
M  V30 48 1 62 63
M  V30 49 1 64 65
M  V30 50 1 65 66
M  V30 51 1 67 68
M  V30 52 1 68 69
M  V30 53 1 70 71
M  V30 54 1 71 72
M  V30 55 1 73 74
M  V30 56 1 74 75
M  V30 57 1 76 77
M  V30 58 1 77 78
M  V30 59 1 79 80
M  V30 60 1 80 81
M  V30 61 1 82 83
M  V30 62 1 83 84
M  V30 63 1 85 86
M  V30 64 1 86 87
M  V30 65 1 88 89
M  V30 66 1 89 90
M  V30 67 1 91 92
M  V30 68 1 92 93
M  V30 69 1 94 95
M  V30 70 1 95 96
M  V30 71 1 97 98
M  V30 72 1 98 99
M  V30 73 1 2 46
M  V30 74 1 3 76
M  V30 75 1 4 70
M  V30 76 1 5 73
M  V30 77 1 7 82
M  V30 78 1 8 61
M  V30 79 1 9 67
M  V30 80 1 10 58
M  V30 81 1 12 88
M  V30 82 1 13 97
M  V30 83 1 14 91
M  V30 84 1 15 85
M  V30 85 1 17 93
M  V30 86 1 18 55
M  V30 87 1 19 52
M  V30 88 1 20 64
M  V30 89 1 22 84
M  V30 90 1 23 99
M  V30 91 1 24 54
M  V30 92 1 25 49
M  V30 93 1 27 57
M  V30 94 1 28 79
M  V30 95 1 29 72
M  V30 96 1 30 66
M  V30 97 1 32 48
M  V30 98 1 33 81
M  V30 99 1 34 87
M  V30 100 1 35 90
M  V30 101 1 37 51
M  V30 102 1 38 94
M  V30 103 1 39 69
M  V30 104 1 40 75
M  V30 105 1 42 63
M  V30 106 1 43 78
M  V30 107 1 44 96
M  V30 108 1 45 60
M  V30 END BOND
M  V30 END CTAB
M  END

$$$$
