
     RDKit          3D

  0  0  0  0  0  0  0  0  0  0999 V3000
M  V30 BEGIN CTAB
M  V30 COUNTS 99 108 0 0 0
M  V30 BEGIN ATOM
M  V30 1 Pd -2.5899 3.0911 2.6768 0
M  V30 2 Pb -3.4455 3.4408 2.3036 0
M  V30 3 Pb -2.9224 2.1530 2.5560 0
M  V30 4 Pb -2.2666 4.0315 2.7270 0
M  V30 5 Pb -1.6595 2.7989 2.8961 0
M  V30 6 Pd -1.9350 -6.4195 3.7098 0
M  V30 7 Pb -1.5307 -6.4161 2.7948 0
M  V30 8 Pb -2.8454 -6.2123 3.3476 0
M  V30 9 Pb -1.0148 -6.5324 4.0776 0
M  V30 10 Pb -2.3136 -6.3275 4.6294 0
M  V30 11 Pd -0.7742 -1.9441 -5.5404 0
M  V30 12 Pb -1.1149 -1.0873 -5.9090 0
M  V30 13 Pb -0.3406 -2.7503 -5.1374 0
M  V30 14 Pb -0.0083 -1.8604 -6.1665 0
M  V30 15 Pb -1.4970 -1.8810 -4.8468 0
M  V30 16 Pd 4.7439 1.8559 -3.7651 0
M  V30 17 Pb 4.4064 1.4774 -4.6217 0
M  V30 18 Pb 5.1398 2.2211 -2.9321 0
M  V30 19 Pb 5.1119 0.9429 -3.5701 0
M  V30 20 Pb 4.2894 2.7556 -3.9462 0
M  V30 21 Pd 3.0950 -3.1777 -1.5134 0
M  V30 22 Pb 2.4360 -3.7504 -1.0182 0
M  V30 23 Pb 2.5875 -3.4748 -2.3286 0
M  V30 24 Pb 3.7910 -2.6710 -2.0369 0
M  V30 25 Pb 3.6353 -2.9569 -0.6952 0
M  V30 26 Pd 1.4295 6.5398 -1.8795 0
M  V30 27 Pb 2.2593 6.4289 -1.3476 0
M  V30 28 Pb 0.5554 6.6702 -2.3597 0
M  V30 29 Pb 0.9911 6.9111 -1.0666 0
M  V30 30 Pb 1.8894 6.0747 -2.6643 0
M  V30 31 Pd -3.4469 3.9796 -2.4343 0
M  V30 32 Pb -3.9045 4.1921 -1.5661 0
M  V30 33 Pb -3.1176 4.9170 -2.5743 0
M  V30 34 Pb -3.6716 3.0039 -2.3392 0
M  V30 35 Pb -3.0940 3.7562 -3.3356 0
M  V30 36 Pd 3.2604 -1.6680 4.0464 0
M  V30 37 Pb 3.8762 -1.8585 3.2810 0
M  V30 38 Pb 2.5939 -1.4676 4.7626 0
M  V30 39 Pb 3.2760 -2.6289 4.3132 0
M  V30 40 Pb 3.1411 -0.7178 3.7761 0
M  V30 41 Pd -3.9188 -2.2883 4.8182 0
M  V30 42 Pb -4.4745 -2.9023 4.2582 0
M  V30 43 Pb -3.9140 -1.6198 4.0712 0
M  V30 44 Pb -3.2459 -1.7672 5.3379 0
M  V30 45 Pb -3.8861 -3.0026 5.5166 0
M  V30 46 Ag -1.1870 -6.3781 2.1285 0
M  V30 47 Fe 0.3804 -5.2629 0.7302 0
M  V30 48 Ag 1.9213 -4.2400 -0.7645 0
M  V30 49 Ag 5.3523 2.6003 -2.3354 0
M  V30 50 Fe 4.4357 4.5010 -1.2956 0
M  V30 51 Ag 2.8814 6.2417 -0.9957 0
M  V30 52 Ag -2.0219 -1.6924 -4.3379 0
M  V30 53 Fe -2.9801 0.2042 -3.2608 0
M  V30 54 Ag -3.7634 2.2532 -2.3312 0
M  V30 55 Ag -1.3209 -0.4025 -6.1089 0
M  V30 56 Fe -2.1044 1.6408 -5.2108 0
M  V30 57 Ag -2.8858 3.5232 -4.0099 0
M  V30 58 Ag 0.5982 -1.6559 -6.5414 0
M  V30 59 Fe 2.4799 -0.2928 -6.0964 0
M  V30 60 Ag 4.1688 1.1219 -5.2323 0
M  V30 61 Ag -0.3063 -6.5234 4.3141 0
M  V30 62 Fe 1.5586 -5.0696 4.4851 0
M  V30 63 Ag 3.1883 -3.3477 4.4971 0
M  V30 64 Ag -2.0031 4.7263 2.6736 0
M  V30 65 Fe -0.6966 6.0871 1.2427 0
M  V30 66 Ag 0.6457 7.0883 -0.4311 0
M  V30 67 Ag -0.9240 2.6683 2.9697 0
M  V30 68 Fe 1.0175 1.3419 3.2924 0
M  V30 69 Ag 2.9342 -0.0166 3.6300 0
M  V30 70 Ag 2.0460 -1.2729 5.2341 0
M  V30 71 Fe -0.2994 -1.2959 5.5908 0
M  V30 72 Ag -2.6630 -1.4698 5.6988 0
M  V30 73 Ba -4.0244 3.7470 1.9431 0
M  V30 74 Ga -4.1858 4.0387 0.5043 0
M  V30 75 Ba -4.3082 4.3173 -0.9410 0
M  V30 76 Ba 4.1192 -2.7980 -0.1376 0
M  V30 77 Ga 4.1710 -2.4034 1.2866 0
M  V30 78 Ba 4.3310 -2.0096 2.7032 0
M  V30 79 Ba 5.3591 0.2385 -3.4658 0
M  V30 80 Ga 4.8233 -1.0272 -2.9102 0
M  V30 81 Ba 4.3780 -2.3384 -2.3814 0
M  V30 82 Ba -2.6146 -6.1722 5.2970 0
M  V30 83 Ga -3.2419 -4.9102 5.7262 0
M  V30 84 Ba -3.8316 -3.5852 5.9846 0
M  V30 85 Ba -3.5278 -5.9891 3.1255 0
M  V30 86 Ga -4.2365 -4.7311 3.4334 0
M  V30 87 Ba -4.8014 -3.4276 3.8344 0
M  V30 88 Ba 3.9391 3.4191 -4.1339 0
M  V30 89 Ga 3.0950 4.5449 -3.6094 0
M  V30 90 Ba 2.2567 5.7393 -3.2542 0
M  V30 91 Ba -3.2097 1.4771 2.3921 0
M  V30 92 Ga -3.5351 0.1714 3.0032 0
M  V30 93 Ba -3.9181 -1.1809 3.4603 0
M  V30 94 Ba -0.1293 6.8270 -2.6406 0
M  V30 95 Ga -1.4674 6.1904 -2.6908 0
M  V30 96 Ba -2.8186 5.5841 -2.7603 0
M  V30 97 Ba 0.0548 -3.3323 -4.8753 0
M  V30 98 Ga 1.1147 -3.5228 -3.8605 0
M  V30 99 Ba 2.1801 -3.8041 -2.8732 0
M  V30 END ATOM
M  V30 BEGIN BOND
M  V30 1 1 1 2
M  V30 2 1 1 3
M  V30 3 1 1 4
M  V30 4 1 1 5
M  V30 5 1 6 7
M  V30 6 1 6 8
M  V30 7 1 6 9
M  V30 8 1 6 10
M  V30 9 1 11 12
M  V30 10 1 11 13
M  V30 11 1 11 14
M  V30 12 1 11 15
M  V30 13 1 16 17
M  V30 14 1 16 18
M  V30 15 1 16 19
M  V30 16 1 16 20
M  V30 17 1 21 22
M  V30 18 1 21 23
M  V30 19 1 21 24
M  V30 20 1 21 25
M  V30 21 1 26 27
M  V30 22 1 26 28
M  V30 23 1 26 29
M  V30 24 1 26 30
M  V30 25 1 31 32
M  V30 26 1 31 33
M  V30 27 1 31 34
M  V30 28 1 31 35
M  V30 29 1 36 37
M  V30 30 1 36 38
M  V30 31 1 36 39
M  V30 32 1 36 40
M  V30 33 1 41 42
M  V30 34 1 41 43
M  V30 35 1 41 44
M  V30 36 1 41 45
M  V30 37 1 46 47
M  V30 38 1 47 48
M  V30 39 1 49 50
M  V30 40 1 50 51
M  V30 41 1 52 53
M  V30 42 1 53 54
M  V30 43 1 55 56
M  V30 44 1 56 57
M  V30 45 1 58 59
M  V30 46 1 59 60
M  V30 47 1 61 62
M  V30 48 1 62 63
M  V30 49 1 64 65
M  V30 50 1 65 66
M  V30 51 1 67 68
M  V30 52 1 68 69
M  V30 53 1 70 71
M  V30 54 1 71 72
M  V30 55 1 73 74
M  V30 56 1 74 75
M  V30 57 1 76 77
M  V30 58 1 77 78
M  V30 59 1 79 80
M  V30 60 1 80 81
M  V30 61 1 82 83
M  V30 62 1 83 84
M  V30 63 1 85 86
M  V30 64 1 86 87
M  V30 65 1 88 89
M  V30 66 1 89 90
M  V30 67 1 91 92
M  V30 68 1 92 93
M  V30 69 1 94 95
M  V30 70 1 95 96
M  V30 71 1 97 98
M  V30 72 1 98 99
M  V30 73 1 2 73
M  V30 74 1 3 91
M  V30 75 1 4 64
M  V30 76 1 5 67
M  V30 77 1 7 46
M  V30 78 1 8 85
M  V30 79 1 9 61
M  V30 80 1 10 82
M  V30 81 1 12 55
M  V30 82 1 13 97
M  V30 83 1 14 58
M  V30 84 1 15 52
M  V30 85 1 17 60
M  V30 86 1 18 49
M  V30 87 1 19 79
M  V30 88 1 20 88
M  V30 89 1 22 48
M  V30 90 1 23 99
M  V30 91 1 24 81
M  V30 92 1 25 76
M  V30 93 1 27 51
M  V30 94 1 28 94
M  V30 95 1 29 66
M  V30 96 1 30 90
M  V30 97 1 32 75
M  V30 98 1 33 96
M  V30 99 1 34 54
M  V30 100 1 35 57
M  V30 101 1 37 78
M  V30 102 1 38 70
M  V30 103 1 39 63
M  V30 104 1 40 69
M  V30 105 1 42 87
M  V30 106 1 43 93
M  V30 107 1 44 72
M  V30 108 1 45 84
M  V30 END BOND
M  V30 END CTAB
M  END

$$$$
