
     RDKit          3D

  0  0  0  0  0  0  0  0  0  0999 V3000
M  V30 BEGIN CTAB
M  V30 COUNTS 99 108 0 0 0
M  V30 BEGIN ATOM
M  V30 1 Pd -1.9912 2.5667 2.5252 0
M  V30 2 Pb -0.9880 2.5974 2.5477 0
M  V30 3 Pb -1.9927 3.5542 2.6892 0
M  V30 4 Pb -2.0154 1.5924 2.3019 0
M  V30 5 Pb -2.9922 2.5582 2.4880 0
M  V30 6 Pd 0.3843 4.0486 -5.2705 0
M  V30 7 Pb 0.8263 3.2936 -4.7821 0
M  V30 8 Pb 0.9967 4.7036 -4.8251 0
M  V30 9 Pb -0.3689 3.4729 -5.5792 0
M  V30 10 Pb -0.0891 4.8368 -5.6579 0
M  V30 11 Pd 6.1891 -2.9620 0.7993 0
M  V30 12 Pb 6.0891 -3.0337 1.7925 0
M  V30 13 Pb 6.1791 -2.8681 -0.1945 0
M  V30 14 Pb 6.0885 -3.9514 0.6864 0
M  V30 15 Pb 6.2476 -1.9693 0.9002 0
M  V30 16 Pd 0.9651 -8.2075 0.5015 0
M  V30 17 Pb 1.9493 -8.1910 0.3312 0
M  V30 18 Pb 1.1171 -8.6483 1.3823 0
M  V30 19 Pb 0.7934 -7.7561 -0.3763 0
M  V30 20 Pb -0.0070 -8.0971 0.7559 0
M  V30 21 Pd 0.7561 -1.6972 -3.6223 0
M  V30 22 Pb 0.9919 -0.7243 -3.5636 0
M  V30 23 Pb 1.7187 -1.8719 -3.8210 0
M  V30 24 Pb 0.5787 -2.6822 -3.6320 0
M  V30 25 Pb -0.1871 -1.5510 -3.3189 0
M  V30 26 Pd -1.9580 -5.0670 4.1270 0
M  V30 27 Pb -1.6645 -5.7821 4.7557 0
M  V30 28 Pb -1.6780 -4.3493 4.7613 0
M  V30 29 Pb -2.1602 -4.3481 3.4646 0
M  V30 30 Pb -2.1373 -5.7798 3.4310 0
M  V30 31 Pd 3.2469 0.0874 3.7286 0
M  V30 32 Pb 2.7248 0.8914 3.4340 0
M  V30 33 Pb 2.5072 -0.2015 4.3363 0
M  V30 34 Pb 3.9909 0.3532 3.1159 0
M  V30 35 Pb 3.7891 -0.7129 3.9964 0
M  V30 36 Pd -5.4412 2.4374 -1.5219 0
M  V30 37 Pb -5.0765 1.5082 -1.5204 0
M  V30 38 Pb -5.7409 3.3930 -1.5323 0
M  V30 39 Pb -5.2188 2.4407 -2.4964 0
M  V30 40 Pb -5.5898 2.4183 -0.5324 0
M  V30 41 Pd -2.2135 8.8353 -1.3534 0
M  V30 42 Pb -1.2209 8.7954 -1.4762 0
M  V30 43 Pb -2.1325 8.6215 -0.3804 0
M  V30 44 Pb -3.1968 8.6709 -1.2997 0
M  V30 45 Pb -2.2812 8.9153 -2.3451 0
M  V30 46 Ag -0.8822 -1.5055 -3.0360 0
M  V30 47 Fe -2.8204 -0.3403 -2.3086 0
M  V30 48 Ag -4.7547 0.8357 -1.5887 0
M  V30 49 Ag 0.6501 -7.4140 -1.0302 0
M  V30 50 Fe 0.5529 -5.4311 -2.3368 0
M  V30 51 Ag 0.4703 -3.4250 -3.6083 0
M  V30 52 Ag 1.1166 -8.8702 2.0914 0
M  V30 53 Fe 0.0291 -7.9621 3.9762 0
M  V30 54 Ag -1.3380 -6.3755 5.0582 0
M  V30 55 Ag -0.4545 5.4670 -5.8232 0
M  V30 56 Fe -1.4432 7.2891 -4.6746 0
M  V30 57 Ag -2.2658 8.8457 -3.0882 0
M  V30 58 Ag 1.3151 5.2575 -4.4294 0
M  V30 59 Fe 0.6265 7.0305 -3.0036 0
M  V30 60 Ag -0.5125 8.6327 -1.6670 0
M  V30 61 Ag 5.9768 -4.6841 0.5666 0
M  V30 62 Fe 4.4058 -6.4566 0.3906 0
M  V30 63 Ag 2.6882 -8.0915 0.2591 0
M  V30 64 Ag -1.0260 3.1427 -5.7124 0
M  V30 65 Fe -3.0682 2.6842 -4.5938 0
M  V30 66 Ag -4.9617 2.3713 -3.1973 0
M  V30 67 Ag -2.1069 0.8757 2.1000 0
M  V30 68 Fe -2.1769 -1.4551 2.5472 0
M  V30 69 Ag -2.2486 -3.7895 2.9744 0
M  V30 70 Ag -5.9147 4.1236 -1.5052 0
M  V30 71 Fe -5.0488 6.3328 -1.3966 0
M  V30 72 Ag -3.8978 8.4081 -1.2985 0
M  V30 73 Ag -1.9831 4.3013 2.7634 0
M  V30 74 Fe -2.0285 6.3932 1.6392 0
M  V30 75 Ag -2.0875 8.3706 0.3245 0
M  V30 76 Ag -1.4056 -3.7752 5.1555 0
M  V30 77 Fe 0.2432 -2.0697 5.0762 0
M  V30 78 Ag 1.9569 -0.4545 4.7785 0
M  V30 79 Ag 6.0732 -2.7966 -0.9315 0
M  V30 80 Fe 4.3736 -2.4060 -2.5398 0
M  V30 81 Ag 2.4544 -1.9968 -3.8729 0
M  V30 82 Ba 1.1756 2.7889 -4.3476 0
M  V30 83 Ga 1.1523 1.3586 -3.9762 0
M  V30 84 Ba 1.2737 -0.0305 -3.4862 0
M  V30 85 Ba -0.2426 2.7085 2.5554 0
M  V30 86 Ga 1.0344 2.0435 2.8932 0
M  V30 87 Ba 2.3846 1.5153 3.1858 0
M  V30 88 Ba 6.2575 -1.2256 0.9936 0
M  V30 89 Ga 5.4271 -0.3232 1.8120 0
M  V30 90 Ba 4.5583 0.5189 2.6547 0
M  V30 91 Ba 5.9569 -3.0453 2.5318 0
M  V30 92 Ga 5.0970 -2.1931 3.3800 0
M  V30 93 Ba 4.2197 -1.3053 4.1721 0
M  V30 94 Ba -0.7297 -7.9914 0.9707 0
M  V30 95 Ga -1.4676 -7.1402 1.9470 0
M  V30 96 Ba -2.2605 -6.3164 2.9036 0
M  V30 97 Ba -3.7426 2.5349 2.4477 0
M  V30 98 Ga -4.7174 2.4779 1.3397 0
M  V30 99 Ba -5.6717 2.4217 0.2139 0
M  V30 END ATOM
M  V30 BEGIN BOND
M  V30 1 1 1 2
M  V30 2 1 1 3
M  V30 3 1 1 4
M  V30 4 1 1 5
M  V30 5 1 6 7
M  V30 6 1 6 8
M  V30 7 1 6 9
M  V30 8 1 6 10
M  V30 9 1 11 12
M  V30 10 1 11 13
M  V30 11 1 11 14
M  V30 12 1 11 15
M  V30 13 1 16 17
M  V30 14 1 16 18
M  V30 15 1 16 19
M  V30 16 1 16 20
M  V30 17 1 21 22
M  V30 18 1 21 23
M  V30 19 1 21 24
M  V30 20 1 21 25
M  V30 21 1 26 27
M  V30 22 1 26 28
M  V30 23 1 26 29
M  V30 24 1 26 30
M  V30 25 1 31 32
M  V30 26 1 31 33
M  V30 27 1 31 34
M  V30 28 1 31 35
M  V30 29 1 36 37
M  V30 30 1 36 38
M  V30 31 1 36 39
M  V30 32 1 36 40
M  V30 33 1 41 42
M  V30 34 1 41 43
M  V30 35 1 41 44
M  V30 36 1 41 45
M  V30 37 1 46 47
M  V30 38 1 47 48
M  V30 39 1 49 50
M  V30 40 1 50 51
M  V30 41 1 52 53
M  V30 42 1 53 54
M  V30 43 1 55 56
M  V30 44 1 56 57
M  V30 45 1 58 59
M  V30 46 1 59 60
M  V30 47 1 61 62
M  V30 48 1 62 63
M  V30 49 1 64 65
M  V30 50 1 65 66
M  V30 51 1 67 68
M  V30 52 1 68 69
M  V30 53 1 70 71
M  V30 54 1 71 72
M  V30 55 1 73 74
M  V30 56 1 74 75
M  V30 57 1 76 77
M  V30 58 1 77 78
M  V30 59 1 79 80
M  V30 60 1 80 81
M  V30 61 1 82 83
M  V30 62 1 83 84
M  V30 63 1 85 86
M  V30 64 1 86 87
M  V30 65 1 88 89
M  V30 66 1 89 90
M  V30 67 1 91 92
M  V30 68 1 92 93
M  V30 69 1 94 95
M  V30 70 1 95 96
M  V30 71 1 97 98
M  V30 72 1 98 99
M  V30 73 1 2 85
M  V30 74 1 3 73
M  V30 75 1 4 67
M  V30 76 1 5 97
M  V30 77 1 7 82
M  V30 78 1 8 58
M  V30 79 1 9 64
M  V30 80 1 10 55
M  V30 81 1 12 91
M  V30 82 1 13 79
M  V30 83 1 14 61
M  V30 84 1 15 88
M  V30 85 1 17 63
M  V30 86 1 18 52
M  V30 87 1 19 49
M  V30 88 1 20 94
M  V30 89 1 22 84
M  V30 90 1 23 81
M  V30 91 1 24 51
M  V30 92 1 25 46
M  V30 93 1 27 54
M  V30 94 1 28 76
M  V30 95 1 29 69
M  V30 96 1 30 96
M  V30 97 1 32 87
M  V30 98 1 33 78
M  V30 99 1 34 90
M  V30 100 1 35 93
M  V30 101 1 37 48
M  V30 102 1 38 70
M  V30 103 1 39 66
M  V30 104 1 40 99
M  V30 105 1 42 60
M  V30 106 1 43 75
M  V30 107 1 44 72
M  V30 108 1 45 57
M  V30 END BOND
M  V30 END CTAB
M  END

$$$$
