
     RDKit          3D

  0  0  0  0  0  0  0  0  0  0999 V3000
M  V30 BEGIN CTAB
M  V30 COUNTS 99 108 0 0 0
M  V30 BEGIN ATOM
M  V30 1 Pd -2.3562 3.1979 2.7839 0
M  V30 2 Pb -1.4118 3.5094 2.9180 0
M  V30 3 Pb -3.3252 2.9395 2.7573 0
M  V30 4 Pb -2.1416 2.2650 3.0753 0
M  V30 5 Pb -2.5631 4.1062 2.4152 0
M  V30 6 Pd -4.7919 -1.7040 -4.4439 0
M  V30 7 Pb -3.9365 -1.8928 -3.9595 0
M  V30 8 Pb -5.2842 -2.2922 -3.8026 0
M  V30 9 Pb -4.3768 -0.9596 -4.9618 0
M  V30 10 Pb -5.6823 -1.4430 -4.8116 0
M  V30 11 Pd 7.5323 -0.9851 -1.1978 0
M  V30 12 Pb 7.1703 -0.0636 -1.0759 0
M  V30 13 Pb 7.3239 -0.9125 -2.1698 0
M  V30 14 Pb 7.8319 -1.9332 -1.3101 0
M  V30 15 Pb 7.5868 -1.0444 -0.2002 0
M  V30 16 Pd 5.2573 -5.2768 0.5389 0
M  V30 17 Pb 6.0702 -5.2111 -0.0401 0
M  V30 18 Pb 4.4413 -5.2757 1.1472 0
M  V30 19 Pb 4.6723 -5.2963 -0.2741 0
M  V30 20 Pb 5.8409 -5.2578 1.3428 0
M  V30 21 Pd 1.0419 -1.0939 -3.9822 0
M  V30 22 Pb 0.1705 -1.3509 -3.5631 0
M  V30 23 Pb 1.9400 -0.8886 -4.3685 0
M  V30 24 Pb 1.3007 -2.0585 -3.9636 0
M  V30 25 Pb 0.8646 -0.1146 -3.8628 0
M  V30 26 Pd 2.3131 -2.6445 5.0280 0
M  V30 27 Pb 2.3543 -3.3985 4.3450 0
M  V30 28 Pb 2.2909 -1.8688 5.6571 0
M  V30 29 Pb 1.4073 -2.3650 4.7129 0
M  V30 30 Pb 3.2147 -2.9050 5.3544 0
M  V30 31 Pd 3.3600 2.1768 3.8023 0
M  V30 32 Pb 2.6254 2.8544 3.7385 0
M  V30 33 Pb 3.0205 1.8371 4.6794 0
M  V30 34 Pb 4.1096 1.5105 3.8197 0
M  V30 35 Pb 3.7300 2.4912 2.9313 0
M  V30 36 Pd -3.2983 5.0101 -2.2201 0
M  V30 37 Pb -2.3367 4.7574 -2.3145 0
M  V30 38 Pb -4.2768 5.1999 -2.1337 0
M  V30 39 Pb -3.4217 4.5299 -3.0888 0
M  V30 40 Pb -3.1607 5.4449 -1.3269 0
M  V30 41 Pd -9.1330 1.2474 -0.4304 0
M  V30 42 Pb -9.0084 0.2592 -0.3396 0
M  V30 43 Pb -8.7077 1.4096 0.4591 0
M  V30 44 Pb -9.0894 2.2272 -0.6134 0
M  V30 45 Pb -9.4135 1.0755 -1.3724 0
M  V30 46 Ag 0.8030 0.6191 -3.7051 0
M  V30 47 Fe -0.4066 2.5673 -3.0811 0
M  V30 48 Ag -1.6505 4.4958 -2.4634 0
M  V30 49 Ag 4.2386 -5.3011 -0.8881 0
M  V30 50 Fe 2.8755 -4.1021 -2.4205 0
M  V30 51 Ag 1.5442 -2.7590 -3.8581 0
M  V30 52 Ag 7.5115 -1.0262 0.5472 0
M  V30 53 Fe 6.1701 -0.0588 2.2558 0
M  V30 54 Ag 4.6901 1.0339 3.7628 0
M  V30 55 Ag -6.3760 -1.2008 -4.9484 0
M  V30 56 Fe -8.1165 -0.1426 -3.7356 0
M  V30 57 Ag -9.4792 0.8889 -2.0929 0
M  V30 58 Ag -5.7246 -2.5820 -3.2695 0
M  V30 59 Fe -7.3254 -1.7611 -1.7194 0
M  V30 60 Ag -8.8095 -0.4617 -0.3969 0
M  V30 61 Ag 6.8484 0.5967 -0.9385 0
M  V30 62 Fe 5.4574 1.7558 0.5926 0
M  V30 63 Ag 4.0622 2.6590 2.2837 0
M  V30 64 Ag 6.1685 -5.1800 2.0020 0
M  V30 65 Fe 5.4240 -4.2291 4.0242 0
M  V30 66 Ag 3.9044 -3.1498 5.4641 0
M  V30 67 Ag -4.1511 -0.3102 -5.2562 0
M  V30 68 Fe -3.7572 1.9426 -4.6194 0
M  V30 69 Ag -3.4350 4.1132 -3.7128 0
M  V30 70 Ag -2.0195 1.5433 3.2427 0
M  V30 71 Fe -0.6350 -0.2793 3.8769 0
M  V30 72 Ag 0.7300 -2.1161 4.5120 0
M  V30 73 Ag -5.0133 5.2998 -2.0317 0
M  V30 74 Fe -7.0555 4.2516 -1.4264 0
M  V30 75 Ag -8.9256 2.9342 -0.7933 0
M  V30 76 Ag -4.0529 2.7518 2.8110 0
M  V30 77 Fe -6.1848 2.1489 1.9498 0
M  V30 78 Ag -8.3143 1.5461 1.0826 0
M  V30 79 Ag 7.0346 -0.8288 -2.8530 0
M  V30 80 Fe 4.9081 -0.7767 -3.9020 0
M  V30 81 Ag 2.6430 -0.7896 -4.6061 0
M  V30 82 Ba -3.3466 -2.0185 -3.5118 0
M  V30 83 Ga -1.8913 -1.7842 -3.4322 0
M  V30 84 Ba -0.4404 -1.6172 -3.2174 0
M  V30 85 Ba -0.7472 3.8363 3.0575 0
M  V30 86 Ga 0.6703 3.5392 3.3523 0
M  V30 87 Ba 2.1100 3.3948 3.6550 0
M  V30 88 Ba 3.8186 -5.2969 1.5950 0
M  V30 89 Ga 3.1474 -4.5791 2.7231 0
M  V30 90 Ba 2.3555 -3.9773 3.8408 0
M  V30 91 Ba 8.0163 -2.6560 -1.3947 0
M  V30 92 Ga 7.3777 -3.9065 -0.9405 0
M  V30 93 Ba 6.6886 -5.1177 -0.4547 0
M  V30 94 Ba -2.6800 4.7836 2.1105 0
M  V30 95 Ga -2.8889 5.2748 0.7316 0
M  V30 96 Ba -3.0974 5.7641 -0.6479 0
M  V30 97 Ba 2.2604 -1.2527 6.0819 0
M  V30 98 Ga 2.5171 0.1607 5.7509 0
M  V30 99 Ba 2.7941 1.5469 5.3327 0
M  V30 END ATOM
M  V30 BEGIN BOND
M  V30 1 1 1 2
M  V30 2 1 1 3
M  V30 3 1 1 4
M  V30 4 1 1 5
M  V30 5 1 6 7
M  V30 6 1 6 8
M  V30 7 1 6 9
M  V30 8 1 6 10
M  V30 9 1 11 12
M  V30 10 1 11 13
M  V30 11 1 11 14
M  V30 12 1 11 15
M  V30 13 1 16 17
M  V30 14 1 16 18
M  V30 15 1 16 19
M  V30 16 1 16 20
M  V30 17 1 21 22
M  V30 18 1 21 23
M  V30 19 1 21 24
M  V30 20 1 21 25
M  V30 21 1 26 27
M  V30 22 1 26 28
M  V30 23 1 26 29
M  V30 24 1 26 30
M  V30 25 1 31 32
M  V30 26 1 31 33
M  V30 27 1 31 34
M  V30 28 1 31 35
M  V30 29 1 36 37
M  V30 30 1 36 38
M  V30 31 1 36 39
M  V30 32 1 36 40
M  V30 33 1 41 42
M  V30 34 1 41 43
M  V30 35 1 41 44
M  V30 36 1 41 45
M  V30 37 1 46 47
M  V30 38 1 47 48
M  V30 39 1 49 50
M  V30 40 1 50 51
M  V30 41 1 52 53
M  V30 42 1 53 54
M  V30 43 1 55 56
M  V30 44 1 56 57
M  V30 45 1 58 59
M  V30 46 1 59 60
M  V30 47 1 61 62
M  V30 48 1 62 63
M  V30 49 1 64 65
M  V30 50 1 65 66
M  V30 51 1 67 68
M  V30 52 1 68 69
M  V30 53 1 70 71
M  V30 54 1 71 72
M  V30 55 1 73 74
M  V30 56 1 74 75
M  V30 57 1 76 77
M  V30 58 1 77 78
M  V30 59 1 79 80
M  V30 60 1 80 81
M  V30 61 1 82 83
M  V30 62 1 83 84
M  V30 63 1 85 86
M  V30 64 1 86 87
M  V30 65 1 88 89
M  V30 66 1 89 90
M  V30 67 1 91 92
M  V30 68 1 92 93
M  V30 69 1 94 95
M  V30 70 1 95 96
M  V30 71 1 97 98
M  V30 72 1 98 99
M  V30 73 1 2 85
M  V30 74 1 3 76
M  V30 75 1 4 70
M  V30 76 1 5 94
M  V30 77 1 7 82
M  V30 78 1 8 58
M  V30 79 1 9 67
M  V30 80 1 10 55
M  V30 81 1 12 61
M  V30 82 1 13 79
M  V30 83 1 14 91
M  V30 84 1 15 52
M  V30 85 1 17 93
M  V30 86 1 18 88
M  V30 87 1 19 49
M  V30 88 1 20 64
M  V30 89 1 22 84
M  V30 90 1 23 81
M  V30 91 1 24 51
M  V30 92 1 25 46
M  V30 93 1 27 90
M  V30 94 1 28 97
M  V30 95 1 29 72
M  V30 96 1 30 66
M  V30 97 1 32 87
M  V30 98 1 33 99
M  V30 99 1 34 54
M  V30 100 1 35 63
M  V30 101 1 37 48
M  V30 102 1 38 73
M  V30 103 1 39 69
M  V30 104 1 40 96
M  V30 105 1 42 60
M  V30 106 1 43 78
M  V30 107 1 44 75
M  V30 108 1 45 57
M  V30 END BOND
M  V30 END CTAB
M  END

$$$$
