
     RDKit          3D

  0  0  0  0  0  0  0  0  0  0999 V3000
M  V30 BEGIN CTAB
M  V30 COUNTS 99 108 0 0 0
M  V30 BEGIN ATOM
M  V30 1 Pd 0.6284 3.9378 -5.2486 0
M  V30 2 Pb 1.2911 4.5396 -4.8134 0
M  V30 3 Pb 1.2287 3.1464 -5.1045 0
M  V30 4 Pb -0.1222 3.3295 -5.5547 0
M  V30 5 Pb 0.0118 4.7139 -5.3286 0
M  V30 6 Pd 1.9351 4.0410 1.5731 0
M  V30 7 Pb 1.7126 3.2947 2.2035 0
M  V30 8 Pb 0.9660 4.2530 1.4330 0
M  V30 9 Pb 2.1748 4.7137 0.8782 0
M  V30 10 Pb 2.9083 3.8231 1.5985 0
M  V30 11 Pd 8.5181 -3.6804 0.1177 0
M  V30 12 Pb 9.2061 -3.0071 -0.1396 0
M  V30 13 Pb 8.7524 -3.5555 1.0768 0
M  V30 14 Pb 8.2616 -3.7447 -0.8496 0
M  V30 15 Pb 7.7378 -4.2593 0.4057 0
M  V30 16 Pd 3.4102 -3.2456 2.7640 0
M  V30 17 Pb 4.0531 -3.9192 2.3597 0
M  V30 18 Pb 2.8248 -2.5113 3.1128 0
M  V30 19 Pb 2.7463 -3.4784 2.0538 0
M  V30 20 Pb 4.0837 -3.0494 3.4700 0
M  V30 21 Pd -7.2410 -1.5486 5.0424 0
M  V30 22 Pb -7.6974 -0.7134 4.7035 0
M  V30 23 Pb -7.6604 -2.0757 4.3089 0
M  V30 24 Pb -6.7649 -0.9955 5.7202 0
M  V30 25 Pb -6.6601 -2.3448 5.2170 0
M  V30 26 Pd -3.7854 -4.7449 -0.0123 0
M  V30 27 Pb -3.7395 -4.9838 0.9601 0
M  V30 28 Pb -2.7903 -4.7292 -0.1019 0
M  V30 29 Pb -3.8750 -4.3827 -0.9382 0
M  V30 30 Pb -4.7751 -4.7134 0.0967 0
M  V30 31 Pd -5.8489 3.0082 1.8733 0
M  V30 32 Pb -6.6245 2.5296 2.3199 0
M  V30 33 Pb -5.4803 3.1898 2.7810 0
M  V30 34 Pb -6.2308 2.7914 0.9688 0
M  V30 35 Pb -5.0648 3.4866 1.4781 0
M  V30 36 Pd -4.6829 1.9409 -3.6823 0
M  V30 37 Pb -4.6266 0.9416 -3.6470 0
M  V30 38 Pb -5.4262 1.9584 -3.0077 0
M  V30 39 Pb -4.7465 2.9291 -3.7741 0
M  V30 40 Pb -3.9255 1.9394 -4.3618 0
M  V30 41 Pd 7.0413 0.1649 -2.4304 0
M  V30 42 Pb 7.1686 -0.6957 -2.9229 0
M  V30 43 Pb 6.1349 0.2726 -2.8493 0
M  V30 44 Pb 6.8853 0.9234 -1.7988 0
M  V30 45 Pb 7.9623 0.0505 -2.0572 0
M  V30 46 Ag 0.2589 4.4272 1.2450 0
M  V30 47 Fe -2.0974 4.1191 1.2580 0
M  V30 48 Ag -4.4595 3.8590 1.2379 0
M  V30 49 Ag 1.5556 2.6978 2.6334 0
M  V30 50 Fe 1.9466 0.3895 3.0473 0
M  V30 51 Ag 2.4286 -1.9186 3.3516 0
M  V30 52 Ag -6.3888 -0.4604 6.0700 0
M  V30 53 Fe -5.5974 1.5799 5.1916 0
M  V30 54 Ag -5.2712 3.1843 3.4938 0
M  V30 55 Ag 2.2762 -3.6932 1.5105 0
M  V30 56 Fe 0.1036 -4.1826 0.6869 0
M  V30 57 Ag -2.0471 -4.6844 -0.1852 0
M  V30 58 Ag -7.8683 -2.4820 3.7200 0
M  V30 59 Fe -6.8849 -3.6341 1.8998 0
M  V30 60 Ag -5.4974 -4.6397 0.2652 0
M  V30 61 Ag -6.1879 -2.9290 5.1915 0
M  V30 62 Fe -4.9131 -4.1315 3.5842 0
M  V30 63 Ag -3.7999 -5.0721 1.7050 0
M  V30 64 Ag 3.6390 3.6973 1.4984 0
M  V30 65 Fe 5.2513 2.5797 0.1614 0
M  V30 66 Ag 6.7691 1.4143 -1.2438 0
M  V30 67 Ag 8.7614 -3.4269 1.8066 0
M  V30 68 Fe 6.9698 -3.1042 3.3025 0
M  V30 69 Ag 4.6913 -2.9575 3.8846 0
M  V30 70 Ag -3.9671 -4.0378 -1.5961 0
M  V30 71 Fe -4.2661 -1.9343 -2.6580 0
M  V30 72 Ag -4.5646 0.1930 -3.6718 0
M  V30 73 Ag -0.5502 5.1954 -5.3003 0
M  V30 74 Fe -2.7942 4.8863 -4.6516 0
M  V30 75 Ag -4.6616 3.6513 -3.9167 0
M  V30 76 Ag 1.7014 4.9774 -4.3721 0
M  V30 77 Fe 2.1694 5.2334 -2.0644 0
M  V30 78 Ag 2.3761 5.1305 0.2930 0
M  V30 79 Ag 1.6535 2.5384 -4.9709 0
M  V30 80 Fe 3.5830 1.4782 -4.0684 0
M  V30 81 Ag 5.4708 0.3158 -3.2043 0
M  V30 82 Ba -0.6968 2.8742 -5.7690 0
M  V30 83 Ga -2.0358 2.4289 -5.2778 0
M  V30 84 Ba -3.3841 1.9052 -4.9039 0
M  V30 85 Ba -6.5652 2.6007 0.3190 0
M  V30 86 Ga -6.2298 2.3054 -1.0927 0
M  V30 87 Ba -6.0016 1.9925 -2.5220 0
M  V30 88 Ba 7.1484 -4.6832 0.6430 0
M  V30 89 Ga 5.8436 -4.5049 1.3471 0
M  V30 90 Ba 4.5244 -4.4319 2.0430 0
M  V30 91 Ba 8.0855 -3.7259 -1.5814 0
M  V30 92 Ga 7.6718 -2.5997 -2.4441 0
M  V30 93 Ba 7.2659 -1.3902 -3.1894 0
M  V30 94 Ba 9.6396 -2.4355 -0.3452 0
M  V30 95 Ga 9.2198 -1.2256 -1.0708 0
M  V30 96 Ba 8.6549 -0.0776 -1.7990 0
M  V30 97 Ba -8.0113 -0.0907 4.3987 0
M  V30 98 Ga -7.5719 1.0452 3.5374 0
M  V30 99 Ba -7.2211 2.2132 2.6786 0
M  V30 END ATOM
M  V30 BEGIN BOND
M  V30 1 1 1 2
M  V30 2 1 1 3
M  V30 3 1 1 4
M  V30 4 1 1 5
M  V30 5 1 6 7
M  V30 6 1 6 8
M  V30 7 1 6 9
M  V30 8 1 6 10
M  V30 9 1 11 12
M  V30 10 1 11 13
M  V30 11 1 11 14
M  V30 12 1 11 15
M  V30 13 1 16 17
M  V30 14 1 16 18
M  V30 15 1 16 19
M  V30 16 1 16 20
M  V30 17 1 21 22
M  V30 18 1 21 23
M  V30 19 1 21 24
M  V30 20 1 21 25
M  V30 21 1 26 27
M  V30 22 1 26 28
M  V30 23 1 26 29
M  V30 24 1 26 30
M  V30 25 1 31 32
M  V30 26 1 31 33
M  V30 27 1 31 34
M  V30 28 1 31 35
M  V30 29 1 36 37
M  V30 30 1 36 38
M  V30 31 1 36 39
M  V30 32 1 36 40
M  V30 33 1 41 42
M  V30 34 1 41 43
M  V30 35 1 41 44
M  V30 36 1 41 45
M  V30 37 1 46 47
M  V30 38 1 47 48
M  V30 39 1 49 50
M  V30 40 1 50 51
M  V30 41 1 52 53
M  V30 42 1 53 54
M  V30 43 1 55 56
M  V30 44 1 56 57
M  V30 45 1 58 59
M  V30 46 1 59 60
M  V30 47 1 61 62
M  V30 48 1 62 63
M  V30 49 1 64 65
M  V30 50 1 65 66
M  V30 51 1 67 68
M  V30 52 1 68 69
M  V30 53 1 70 71
M  V30 54 1 71 72
M  V30 55 1 73 74
M  V30 56 1 74 75
M  V30 57 1 76 77
M  V30 58 1 77 78
M  V30 59 1 79 80
M  V30 60 1 80 81
M  V30 61 1 82 83
M  V30 62 1 83 84
M  V30 63 1 85 86
M  V30 64 1 86 87
M  V30 65 1 88 89
M  V30 66 1 89 90
M  V30 67 1 91 92
M  V30 68 1 92 93
M  V30 69 1 94 95
M  V30 70 1 95 96
M  V30 71 1 97 98
M  V30 72 1 98 99
M  V30 73 1 2 76
M  V30 74 1 3 79
M  V30 75 1 4 82
M  V30 76 1 5 73
M  V30 77 1 7 49
M  V30 78 1 8 46
M  V30 79 1 9 78
M  V30 80 1 10 64
M  V30 81 1 12 94
M  V30 82 1 13 67
M  V30 83 1 14 91
M  V30 84 1 15 88
M  V30 85 1 17 90
M  V30 86 1 18 51
M  V30 87 1 19 55
M  V30 88 1 20 69
M  V30 89 1 22 97
M  V30 90 1 23 58
M  V30 91 1 24 52
M  V30 92 1 25 61
M  V30 93 1 27 63
M  V30 94 1 28 57
M  V30 95 1 29 70
M  V30 96 1 30 60
M  V30 97 1 32 99
M  V30 98 1 33 54
M  V30 99 1 34 85
M  V30 100 1 35 48
M  V30 101 1 37 72
M  V30 102 1 38 87
M  V30 103 1 39 75
M  V30 104 1 40 84
M  V30 105 1 42 93
M  V30 106 1 43 81
M  V30 107 1 44 66
M  V30 108 1 45 96
M  V30 END BOND
M  V30 END CTAB
M  END

$$$$
