
     RDKit          3D

  0  0  0  0  0  0  0  0  0  0999 V3000
M  V30 BEGIN CTAB
M  V30 COUNTS 99 108 0 0 0
M  V30 BEGIN ATOM
M  V30 1 Pd -3.8993 -4.5715 0.9584 0
M  V30 2 Pb -3.6080 -3.7328 1.4222 0
M  V30 3 Pb -4.6675 -4.1146 0.5194 0
M  V30 4 Pb -4.1293 -5.4081 0.4340 0
M  V30 5 Pb -3.1700 -5.0566 1.4406 0
M  V30 6 Pd -4.4194 -6.6620 -4.4144 0
M  V30 7 Pb -4.3205 -6.2920 -5.3336 0
M  V30 8 Pb -4.4822 -6.9423 -3.4432 0
M  V30 9 Pb -5.2892 -6.1889 -4.3131 0
M  V30 10 Pb -3.4731 -7.0204 -4.4756 0
M  V30 11 Pd -1.7688 3.3727 4.2561 0
M  V30 12 Pb -1.8561 4.3251 3.9677 0
M  V30 13 Pb -1.6277 2.4011 4.4457 0
M  V30 14 Pb -0.8878 3.5766 4.6761 0
M  V30 15 Pb -2.6456 3.1724 3.8253 0
M  V30 16 Pd 5.1917 5.8091 2.7251 0
M  V30 17 Pb 5.7447 4.9749 2.7581 0
M  V30 18 Pb 4.5567 6.5646 2.5668 0
M  V30 19 Pb 5.7388 6.1157 1.9524 0
M  V30 20 Pb 4.6269 5.4898 3.4817 0
M  V30 21 Pd -2.2263 0.8969 0.0472 0
M  V30 22 Pb -2.1714 1.7170 -0.5251 0
M  V30 23 Pb -1.4229 0.5263 -0.4215 0
M  V30 24 Pb -3.0119 1.2848 0.5219 0
M  V30 25 Pb -2.2847 0.1204 0.6809 0
M  V30 26 Pd 0.8456 -4.6944 -3.9462 0
M  V30 27 Pb 0.4959 -4.3417 -4.8096 0
M  V30 28 Pb 1.2323 -5.0609 -3.1004 0
M  V30 29 Pb 0.4023 -5.5803 -4.1573 0
M  V30 30 Pb 1.1409 -3.7843 -3.6638 0
M  V30 31 Pd 0.4208 5.9109 0.0342 0
M  V30 32 Pb -0.2657 5.3498 -0.4381 0
M  V30 33 Pb 1.0366 5.7247 -0.7374 0
M  V30 34 Pb -0.2193 6.1205 0.7781 0
M  V30 35 Pb 1.0852 6.5177 0.4851 0
M  V30 36 Pd 1.0071 -3.3696 1.4601 0
M  V30 37 Pb 1.3746 -2.6193 0.9101 0
M  V30 38 Pb 0.6032 -2.7429 2.1307 0
M  V30 39 Pb 0.5761 -4.1308 1.9376 0
M  V30 40 Pb 1.3993 -4.0312 0.8200 0
M  V30 41 Pd 4.9584 3.1614 -1.0612 0
M  V30 42 Pb 5.5368 3.9728 -1.0784 0
M  V30 43 Pb 5.5342 2.7968 -0.3276 0
M  V30 44 Pb 4.3282 3.6182 -1.6867 0
M  V30 45 Pb 4.3794 2.3463 -1.0679 0
M  V30 46 Ag -0.2173 3.7315 4.9668 0
M  V30 47 Fe 1.9958 4.4835 4.5685 0
M  V30 48 Ag 4.1721 5.2507 4.0234 0
M  V30 49 Ag 1.6131 -2.0929 0.4315 0
M  V30 50 Fe 2.8117 -0.1582 -0.2476 0
M  V30 51 Ag 3.9322 1.7467 -1.1177 0
M  V30 52 Ag -5.2443 -3.9031 0.1018 0
M  V30 53 Fe -5.9709 -4.5627 -2.0431 0
M  V30 54 Ag -5.8330 -5.7427 -4.0799 0
M  V30 55 Ag -0.8175 0.2810 -0.7928 0
M  V30 56 Fe 0.2853 -1.3713 -2.0942 0
M  V30 57 Ag 1.2729 -3.1032 -3.3842 0
M  V30 58 Ag -4.0795 -5.9280 -5.9322 0
M  V30 59 Fe -2.0064 -4.8386 -6.1881 0
M  V30 60 Ag 0.1308 -4.1881 -5.4376 0
M  V30 61 Ag -1.4858 1.6703 4.5387 0
M  V30 62 Fe -0.5999 -0.3225 3.5932 0
M  V30 63 Ag 0.2813 -2.3279 2.6703 0
M  V30 64 Ba -2.7526 -7.2695 -4.5274 0
M  V30 65 Ga -1.3695 -6.7199 -4.4082 0
M  V30 66 Ba 0.0389 -6.2357 -4.3034 0
M  V30 67 Ba 1.4422 5.5724 -1.3554 0
M  V30 68 Ga 2.6418 4.7921 -1.7249 0
M  V30 69 Ba 3.8426 4.0147 -2.0968 0
M  V30 70 Ba 6.1200 6.2803 1.3346 0
M  V30 71 Ga 6.1100 5.5044 0.0910 0
M  V30 72 Ba 5.9555 4.5894 -1.0440 0
M  V30 73 Ba -4.2924 -6.0476 0.0497 0
M  V30 74 Ga -4.4032 -6.5471 -1.3516 0
M  V30 75 Ba -4.5404 -7.1470 -2.7105 0
M  V30 76 Ba -2.6283 -5.3987 1.8303 0
M  V30 77 Ga -1.2077 -5.0899 2.0636 0
M  V30 78 Ba 0.2021 -4.7030 2.2375 0
M  V30 79 Ba -1.9012 5.0228 3.6983 0
M  V30 80 Ga -1.2957 5.6718 2.5177 0
M  V30 81 Ba -0.6881 6.3154 1.3351 0
M  V30 82 Ba 1.5533 -5.3253 -2.4766 0
M  V30 83 Ga 1.6051 -4.9264 -1.0572 0
M  V30 84 Ba 1.6829 -4.5609 0.3700 0
M  V30 85 Ba -2.1443 2.3459 -0.9360 0
M  V30 86 Ga -1.4377 3.6431 -0.8593 0
M  V30 87 Ba -0.7679 4.9618 -0.8464 0
M  V30 88 Ba -3.2819 3.0182 3.4657 0
M  V30 89 Ga -3.4989 2.3082 2.1978 0
M  V30 90 Ba -3.5672 1.5798 0.9237 0
M  V30 91 Ba -3.3278 -3.1335 1.7796 0
M  V30 92 Ga -2.8594 -1.7707 1.4465 0
M  V30 93 Ba -2.3631 -0.3951 1.2258 0
M  V30 94 Ba 6.1130 4.3240 2.6816 0
M  V30 95 Ga 6.0882 3.4096 1.5205 0
M  V30 96 Ba 5.9439 2.6221 0.2780 0
M  V30 97 Ba 4.0547 7.0917 2.3852 0
M  V30 98 Ga 2.7932 7.0419 1.6130 0
M  V30 99 Ba 1.5304 7.0144 0.8419 0
M  V30 END ATOM
M  V30 BEGIN BOND
M  V30 1 1 1 2
M  V30 2 1 1 3
M  V30 3 1 1 4
M  V30 4 1 1 5
M  V30 5 1 6 7
M  V30 6 1 6 8
M  V30 7 1 6 9
M  V30 8 1 6 10
M  V30 9 1 11 12
M  V30 10 1 11 13
M  V30 11 1 11 14
M  V30 12 1 11 15
M  V30 13 1 16 17
M  V30 14 1 16 18
M  V30 15 1 16 19
M  V30 16 1 16 20
M  V30 17 1 21 22
M  V30 18 1 21 23
M  V30 19 1 21 24
M  V30 20 1 21 25
M  V30 21 1 26 27
M  V30 22 1 26 28
M  V30 23 1 26 29
M  V30 24 1 26 30
M  V30 25 1 31 32
M  V30 26 1 31 33
M  V30 27 1 31 34
M  V30 28 1 31 35
M  V30 29 1 36 37
M  V30 30 1 36 38
M  V30 31 1 36 39
M  V30 32 1 36 40
M  V30 33 1 41 42
M  V30 34 1 41 43
M  V30 35 1 41 44
M  V30 36 1 41 45
M  V30 37 1 46 47
M  V30 38 1 47 48
M  V30 39 1 49 50
M  V30 40 1 50 51
M  V30 41 1 52 53
M  V30 42 1 53 54
M  V30 43 1 55 56
M  V30 44 1 56 57
M  V30 45 1 58 59
M  V30 46 1 59 60
M  V30 47 1 61 62
M  V30 48 1 62 63
M  V30 49 1 64 65
M  V30 50 1 65 66
M  V30 51 1 67 68
M  V30 52 1 68 69
M  V30 53 1 70 71
M  V30 54 1 71 72
M  V30 55 1 73 74
M  V30 56 1 74 75
M  V30 57 1 76 77
M  V30 58 1 77 78
M  V30 59 1 79 80
M  V30 60 1 80 81
M  V30 61 1 82 83
M  V30 62 1 83 84
M  V30 63 1 85 86
M  V30 64 1 86 87
M  V30 65 1 88 89
M  V30 66 1 89 90
M  V30 67 1 91 92
M  V30 68 1 92 93
M  V30 69 1 94 95
M  V30 70 1 95 96
M  V30 71 1 97 98
M  V30 72 1 98 99
M  V30 73 1 2 91
M  V30 74 1 3 52
M  V30 75 1 4 73
M  V30 76 1 5 76
M  V30 77 1 7 58
M  V30 78 1 8 75
M  V30 79 1 9 54
M  V30 80 1 10 64
M  V30 81 1 12 79
M  V30 82 1 13 61
M  V30 83 1 14 46
M  V30 84 1 15 88
M  V30 85 1 17 94
M  V30 86 1 18 97
M  V30 87 1 19 70
M  V30 88 1 20 48
M  V30 89 1 22 85
M  V30 90 1 23 55
M  V30 91 1 24 90
M  V30 92 1 25 93
M  V30 93 1 27 60
M  V30 94 1 28 82
M  V30 95 1 29 66
M  V30 96 1 30 57
M  V30 97 1 32 87
M  V30 98 1 33 67
M  V30 99 1 34 81
M  V30 100 1 35 99
M  V30 101 1 37 49
M  V30 102 1 38 63
M  V30 103 1 39 78
M  V30 104 1 40 84
M  V30 105 1 42 72
M  V30 106 1 43 96
M  V30 107 1 44 69
M  V30 108 1 45 51
M  V30 END BOND
M  V30 END CTAB
M  END

$$$$
