
     RDKit          3D

  0  0  0  0  0  0  0  0  0  0999 V3000
M  V30 BEGIN CTAB
M  V30 COUNTS 99 108 0 0 0
M  V30 BEGIN ATOM
M  V30 1 Pd 6.5028 5.3911 -0.7619 0
M  V30 2 Pb 6.1814 5.4479 0.1835 0
M  V30 3 Pb 7.3770 5.8195 -0.5279 0
M  V30 4 Pb 5.8067 4.7082 -1.0112 0
M  V30 5 Pb 6.8312 5.3310 -1.7008 0
M  V30 6 Pd 1.2676 1.6481 -2.1260 0
M  V30 7 Pb 1.0813 0.6678 -2.1743 0
M  V30 8 Pb 1.4571 2.6286 -2.0489 0
M  V30 9 Pb 2.1723 1.4716 -2.5201 0
M  V30 10 Pb 0.3754 1.8102 -1.7036 0
M  V30 11 Pd -6.0515 -4.1542 2.2054 0
M  V30 12 Pb -5.1246 -4.1117 1.8338 0
M  V30 13 Pb -5.9738 -3.2266 2.5800 0
M  V30 14 Pb -6.9847 -4.2184 2.5511 0
M  V30 15 Pb -6.1937 -5.0358 1.7452 0
M  V30 16 Pd -6.3771 0.2807 -0.3593 0
M  V30 17 Pb -6.3341 0.1859 0.6374 0
M  V30 18 Pb -7.3111 -0.1097 -0.3855 0
M  V30 19 Pb -5.4809 0.7257 -0.3465 0
M  V30 20 Pb -6.3747 0.2298 -1.3553 0
M  V30 21 Pd 1.8972 4.2836 2.1356 0
M  V30 22 Pb 0.9783 3.9045 2.0139 0
M  V30 23 Pb 1.8739 4.7017 1.2281 0
M  V30 24 Pb 2.8149 4.6496 2.2927 0
M  V30 25 Pb 1.9369 3.7580 2.9839 0
M  V30 26 Pd 8.2383 1.2803 -2.3247 0
M  V30 27 Pb 7.2333 1.3379 -2.3011 0
M  V30 28 Pb 8.2476 0.4921 -1.7092 0
M  V30 29 Pb 9.2084 1.4730 -2.1697 0
M  V30 30 Pb 8.2224 2.0656 -2.9380 0
M  V30 31 Pd -0.8446 -2.1343 3.2534 0
M  V30 32 Pb -0.2932 -1.5536 3.8520 0
M  V30 33 Pb -0.1652 -2.8634 3.3050 0
M  V30 34 Pb -1.3922 -1.3225 3.0585 0
M  V30 35 Pb -1.3718 -2.6799 2.6025 0
M  V30 36 Pd -9.3561 -4.4488 -0.9569 0
M  V30 37 Pb -9.6198 -3.4802 -0.9250 0
M  V30 38 Pb -9.6574 -4.5450 -0.0115 0
M  V30 39 Pb -8.8957 -5.3309 -0.8743 0
M  V30 40 Pb -9.0194 -4.2929 -1.8831 0
M  V30 41 Pd 4.4934 -2.2227 -1.0680 0
M  V30 42 Pb 4.6404 -1.4988 -1.7439 0
M  V30 43 Pb 5.4449 -2.1503 -0.7702 0
M  V30 44 Pb 4.2909 -2.8867 -0.3481 0
M  V30 45 Pb 3.5403 -2.2745 -1.3641 0
M  V30 46 Ag 8.1205 5.8577 -0.4590 0
M  V30 47 Fe 9.5415 4.0708 -1.0835 0
M  V30 48 Ag 9.7944 1.8854 -1.9567 0
M  V30 49 Ag 0.3052 3.5709 1.9944 0
M  V30 50 Fe -0.8387 1.5270 2.3904 0
M  V30 51 Ag -1.6596 -0.6512 2.8621 0
M  V30 52 Ag -6.4489 -0.0154 -2.0532 0
M  V30 53 Fe -7.5085 -1.9943 -2.7865 0
M  V30 54 Ag -8.7268 -3.9974 -2.5006 0
M  V30 55 Ag -0.2786 1.9524 -1.3643 0
M  V30 56 Fe -2.5537 1.4716 -0.8784 0
M  V30 57 Ag -4.8309 1.0999 -0.3132 0
M  V30 58 Ag 1.9155 3.2695 3.5508 0
M  V30 59 Fe 1.0773 1.1092 4.0654 0
M  V30 60 Ag 0.1066 -1.0502 4.2376 0
M  V30 61 Ag 0.4126 -3.3304 3.2196 0
M  V30 62 Fe 2.3128 -3.5183 1.8102 0
M  V30 63 Ag 4.0571 -3.3268 0.2121 0
M  V30 64 Ba 8.2414 -0.1048 -1.2551 0
M  V30 65 Ga 7.2136 -1.0988 -0.8937 0
M  V30 66 Ba 6.1594 -2.0736 -0.5569 0
M  V30 67 Ba 0.9754 -0.0732 -2.1983 0
M  V30 68 Ga 1.8724 -1.2040 -1.9016 0
M  V30 69 Ba 2.8253 -2.2835 -1.5880 0
M  V30 70 Ba 1.5733 3.3650 -1.9540 0
M  V30 71 Ga 1.7274 4.1963 -0.7441 0
M  V30 72 Ba 1.8725 4.9456 0.5193 0
M  V30 73 Ba 5.4032 4.1055 -1.2362 0
M  V30 74 Ga 5.8871 2.7886 -1.7407 0
M  V30 75 Ba 6.4993 1.5194 -2.2280 0
M  V30 76 Ba -5.9630 -2.5132 2.8227 0
M  V30 77 Ga -6.1082 -1.2142 2.1288 0
M  V30 78 Ba -6.2584 0.0497 1.3737 0
M  V30 79 Ba 5.9532 5.5011 0.8962 0
M  V30 80 Ga 4.7183 5.2053 1.6474 0
M  V30 81 Ba 3.5005 4.9217 2.4305 0
M  V30 82 Ba -7.7037 -4.2979 2.7362 0
M  V30 83 Ga -8.8343 -4.4485 1.8112 0
M  V30 84 Ba -9.8071 -4.5784 0.7190 0
M  V30 85 Ba 7.0948 5.2275 -2.3908 0
M  V30 86 Ga 7.6561 3.9968 -2.9604 0
M  V30 87 Ba 8.1817 2.6840 -3.3533 0
M  V30 88 Ba 2.8494 1.3019 -2.8010 0
M  V30 89 Ga 3.7985 0.1998 -2.5382 0
M  V30 90 Ba 4.7025 -0.9276 -2.2281 0
M  V30 91 Ba -6.3570 -5.6618 1.3564 0
M  V30 92 Ga -7.3849 -5.8841 0.3161 0
M  V30 93 Ba -8.4619 -5.9158 -0.6967 0
M  V30 94 Ba -4.4400 -4.1120 1.5283 0
M  V30 95 Ga -3.1002 -3.5816 1.8404 0
M  V30 96 Ba -1.7340 -3.0841 2.0855 0
M  V30 97 Ba -8.0365 -0.3374 -0.4446 0
M  V30 98 Ga -8.8624 -1.5570 -0.6505 0
M  V30 99 Ba -9.7436 -2.7383 -0.8522 0
M  V30 END ATOM
M  V30 BEGIN BOND
M  V30 1 1 1 2
M  V30 2 1 1 3
M  V30 3 1 1 4
M  V30 4 1 1 5
M  V30 5 1 6 7
M  V30 6 1 6 8
M  V30 7 1 6 9
M  V30 8 1 6 10
M  V30 9 1 11 12
M  V30 10 1 11 13
M  V30 11 1 11 14
M  V30 12 1 11 15
M  V30 13 1 16 17
M  V30 14 1 16 18
M  V30 15 1 16 19
M  V30 16 1 16 20
M  V30 17 1 21 22
M  V30 18 1 21 23
M  V30 19 1 21 24
M  V30 20 1 21 25
M  V30 21 1 26 27
M  V30 22 1 26 28
M  V30 23 1 26 29
M  V30 24 1 26 30
M  V30 25 1 31 32
M  V30 26 1 31 33
M  V30 27 1 31 34
M  V30 28 1 31 35
M  V30 29 1 36 37
M  V30 30 1 36 38
M  V30 31 1 36 39
M  V30 32 1 36 40
M  V30 33 1 41 42
M  V30 34 1 41 43
M  V30 35 1 41 44
M  V30 36 1 41 45
M  V30 37 1 46 47
M  V30 38 1 47 48
M  V30 39 1 49 50
M  V30 40 1 50 51
M  V30 41 1 52 53
M  V30 42 1 53 54
M  V30 43 1 55 56
M  V30 44 1 56 57
M  V30 45 1 58 59
M  V30 46 1 59 60
M  V30 47 1 61 62
M  V30 48 1 62 63
M  V30 49 1 64 65
M  V30 50 1 65 66
M  V30 51 1 67 68
M  V30 52 1 68 69
M  V30 53 1 70 71
M  V30 54 1 71 72
M  V30 55 1 73 74
M  V30 56 1 74 75
M  V30 57 1 76 77
M  V30 58 1 77 78
M  V30 59 1 79 80
M  V30 60 1 80 81
M  V30 61 1 82 83
M  V30 62 1 83 84
M  V30 63 1 85 86
M  V30 64 1 86 87
M  V30 65 1 88 89
M  V30 66 1 89 90
M  V30 67 1 91 92
M  V30 68 1 92 93
M  V30 69 1 94 95
M  V30 70 1 95 96
M  V30 71 1 97 98
M  V30 72 1 98 99
M  V30 73 1 2 79
M  V30 74 1 3 46
M  V30 75 1 4 73
M  V30 76 1 5 85
M  V30 77 1 7 67
M  V30 78 1 8 70
M  V30 79 1 9 88
M  V30 80 1 10 55
M  V30 81 1 12 94
M  V30 82 1 13 76
M  V30 83 1 14 82
M  V30 84 1 15 91
M  V30 85 1 17 78
M  V30 86 1 18 97
M  V30 87 1 19 57
M  V30 88 1 20 52
M  V30 89 1 22 49
M  V30 90 1 23 72
M  V30 91 1 24 81
M  V30 92 1 25 58
M  V30 93 1 27 75
M  V30 94 1 28 64
M  V30 95 1 29 48
M  V30 96 1 30 87
M  V30 97 1 32 60
M  V30 98 1 33 61
M  V30 99 1 34 51
M  V30 100 1 35 96
M  V30 101 1 37 99
M  V30 102 1 38 84
M  V30 103 1 39 93
M  V30 104 1 40 54
M  V30 105 1 42 90
M  V30 106 1 43 66
M  V30 107 1 44 63
M  V30 108 1 45 69
M  V30 END BOND
M  V30 END CTAB
M  END

$$$$
