
     RDKit          3D

  0  0  0  0  0  0  0  0  0  0999 V3000
M  V30 BEGIN CTAB
M  V30 COUNTS 99 108 0 0 0
M  V30 BEGIN ATOM
M  V30 1 Pd -3.7452 -2.9609 -0.2918 0
M  V30 2 Pb -3.1606 -3.6532 0.1473 0
M  V30 3 Pb -3.4161 -3.3002 -1.1751 0
M  V30 4 Pb -4.2275 -2.6522 0.5350 0
M  V30 5 Pb -4.2568 -2.2660 -0.7917 0
M  V30 6 Pd 3.0058 1.8035 -5.4532 0
M  V30 7 Pb 2.9006 1.6453 -4.4701 0
M  V30 8 Pb 3.3687 0.8758 -5.5249 0
M  V30 9 Pb 2.4613 2.6427 -5.4699 0
M  V30 10 Pb 2.9922 1.8409 -6.4483 0
M  V30 11 Pd 4.2721 -0.4641 4.3118 0
M  V30 12 Pb 3.9348 -1.2877 3.7988 0
M  V30 13 Pb 4.5883 -0.0119 3.4751 0
M  V30 14 Pb 4.5408 0.3454 4.8353 0
M  V30 15 Pb 4.0565 -0.9064 5.1707 0
M  V30 16 Pd 1.4558 3.7146 5.4313 0
M  V30 17 Pb 2.3734 3.4946 5.7633 0
M  V30 18 Pb 0.5393 3.8632 5.0565 0
M  V30 19 Pb 1.8645 4.3459 4.7740 0
M  V30 20 Pb 1.0287 3.0797 6.0742 0
M  V30 21 Pd 2.8312 3.2267 0.2829 0
M  V30 22 Pb 2.7338 2.5008 -0.3942 0
M  V30 23 Pb 3.6491 2.7622 0.6219 0
M  V30 24 Pb 2.9264 3.9593 0.9557 0
M  V30 25 Pb 1.9887 3.6386 -0.0576 0
M  V30 26 Pd -4.3801 -0.5130 5.0121 0
M  V30 27 Pb -4.2154 0.4169 4.6806 0
M  V30 28 Pb -4.4704 -1.4559 5.3190 0
M  V30 29 Pb -4.9026 -0.7766 4.2027 0
M  V30 30 Pb -3.7687 -0.2935 5.7712 0
M  V30 31 Pd 0.2747 -4.9786 3.6603 0
M  V30 32 Pb -0.1616 -5.0570 2.7593 0
M  V30 33 Pb -0.5707 -5.3163 4.0621 0
M  V30 34 Pb 0.6449 -4.9406 4.5776 0
M  V30 35 Pb 1.1129 -4.5090 3.3033 0
M  V30 36 Pd -2.3270 2.4677 -5.2099 0
M  V30 37 Pb -2.0935 2.9544 -4.3698 0
M  V30 38 Pb -2.6030 1.9742 -6.0436 0
M  V30 39 Pb -1.5489 2.9586 -5.6138 0
M  V30 40 Pb -3.0815 2.0128 -4.7405 0
M  V30 41 Pd -1.3115 -2.2241 -7.7334 0
M  V30 42 Pb -0.4410 -2.6737 -7.5386 0
M  V30 43 Pb -1.7338 -2.7530 -6.9959 0
M  V30 44 Pb -2.0948 -1.6107 -7.8399 0
M  V30 45 Pb -0.8291 -1.6688 -8.4066 0
M  V30 46 Ag 1.3430 3.8963 -0.3327 0
M  V30 47 Fe -0.3084 3.6613 -2.0200 0
M  V30 48 Ag -1.8927 3.3320 -3.7554 0
M  V30 49 Ag -0.1639 3.8841 4.7926 0
M  V30 50 Fe -2.1526 2.6022 4.5685 0
M  V30 51 Ag -3.9985 1.1079 4.4817 0
M  V30 52 Ag 3.8638 -1.3143 5.7531 0
M  V30 53 Fe 2.4514 -3.1754 5.9963 0
M  V30 54 Ag 0.9480 -4.8125 5.2366 0
M  V30 55 Ag 2.8401 1.7484 -7.1707 0
M  V30 56 Fe 1.2994 0.3708 -8.3222 0
M  V30 57 Ag -0.3945 -1.2102 -8.8025 0
M  V30 58 Ag 3.4664 0.1441 -5.6451 0
M  V30 59 Fe 2.0845 -1.5976 -6.4708 0
M  V30 60 Ag 0.2607 -2.8402 -7.3396 0
M  V30 61 Ag 0.6335 2.6119 6.5060 0
M  V30 62 Fe -1.2862 1.2157 6.5317 0
M  V30 63 Ag -3.2462 -0.0979 6.2710 0
M  V30 64 Ag -4.5838 -1.7372 -1.2061 0
M  V30 65 Fe -4.1968 -0.0137 -2.7892 0
M  V30 66 Ag -3.6271 1.6678 -4.3624 0
M  V30 67 Ag -3.2609 -3.5768 -1.8571 0
M  V30 68 Fe -2.6133 -3.3412 -4.1321 0
M  V30 69 Ag -1.9712 -3.1649 -6.4140 0
M  V30 70 Ag -4.4547 -2.1864 5.4626 0
M  V30 71 Fe -3.0178 -4.0216 5.0574 0
M  V30 72 Ag -1.2276 -5.4188 4.3949 0
M  V30 73 Ba 2.7911 1.3848 -3.7732 0
M  V30 74 Ga 2.7434 1.7438 -2.3438 0
M  V30 75 Ba 2.6611 1.9414 -0.8844 0
M  V30 76 Ba -2.6716 -4.2035 0.3264 0
M  V30 77 Ga -1.6153 -4.6233 1.2778 0
M  V30 78 Ba -0.5419 -5.1987 2.1234 0
M  V30 79 Ba 2.1869 4.8065 4.2793 0
M  V30 80 Ga 2.5878 4.6709 2.8678 0
M  V30 81 Ba 2.9810 4.5141 1.4563 0
M  V30 82 Ba 3.7079 -1.9058 3.3873 0
M  V30 83 Ga 2.6810 -3.0020 3.2857 0
M  V30 84 Ba 1.7468 -4.1551 3.0320 0
M  V30 85 Ba 4.7011 0.9513 5.2490 0
M  V30 86 Ga 3.9129 2.1412 5.6251 0
M  V30 87 Ba 3.0715 3.3057 5.9631 0
M  V30 88 Ba 1.9939 3.2147 -5.6130 0
M  V30 89 Ga 0.5176 3.3102 -5.6982 0
M  V30 90 Ba -0.9589 3.3989 -5.7866 0
M  V30 91 Ba -4.7279 -2.3895 1.0385 0
M  V30 92 Ga -4.9262 -1.7098 2.3373 0
M  V30 93 Ba -5.2774 -1.0425 3.6106 0
M  V30 94 Ba -2.9060 1.5842 -6.6186 0
M  V30 95 Ga -2.7502 0.2609 -7.2684 0
M  V30 96 Ba -2.5978 -1.0585 -7.9270 0
M  V30 97 Ba 4.8989 0.3464 2.8906 0
M  V30 98 Ga 4.5416 1.3602 1.8780 0
M  V30 99 Ba 4.2494 2.3688 0.8395 0
M  V30 END ATOM
M  V30 BEGIN BOND
M  V30 1 1 1 2
M  V30 2 1 1 3
M  V30 3 1 1 4
M  V30 4 1 1 5
M  V30 5 1 6 7
M  V30 6 1 6 8
M  V30 7 1 6 9
M  V30 8 1 6 10
M  V30 9 1 11 12
M  V30 10 1 11 13
M  V30 11 1 11 14
M  V30 12 1 11 15
M  V30 13 1 16 17
M  V30 14 1 16 18
M  V30 15 1 16 19
M  V30 16 1 16 20
M  V30 17 1 21 22
M  V30 18 1 21 23
M  V30 19 1 21 24
M  V30 20 1 21 25
M  V30 21 1 26 27
M  V30 22 1 26 28
M  V30 23 1 26 29
M  V30 24 1 26 30
M  V30 25 1 31 32
M  V30 26 1 31 33
M  V30 27 1 31 34
M  V30 28 1 31 35
M  V30 29 1 36 37
M  V30 30 1 36 38
M  V30 31 1 36 39
M  V30 32 1 36 40
M  V30 33 1 41 42
M  V30 34 1 41 43
M  V30 35 1 41 44
M  V30 36 1 41 45
M  V30 37 1 46 47
M  V30 38 1 47 48
M  V30 39 1 49 50
M  V30 40 1 50 51
M  V30 41 1 52 53
M  V30 42 1 53 54
M  V30 43 1 55 56
M  V30 44 1 56 57
M  V30 45 1 58 59
M  V30 46 1 59 60
M  V30 47 1 61 62
M  V30 48 1 62 63
M  V30 49 1 64 65
M  V30 50 1 65 66
M  V30 51 1 67 68
M  V30 52 1 68 69
M  V30 53 1 70 71
M  V30 54 1 71 72
M  V30 55 1 73 74
M  V30 56 1 74 75
M  V30 57 1 76 77
M  V30 58 1 77 78
M  V30 59 1 79 80
M  V30 60 1 80 81
M  V30 61 1 82 83
M  V30 62 1 83 84
M  V30 63 1 85 86
M  V30 64 1 86 87
M  V30 65 1 88 89
M  V30 66 1 89 90
M  V30 67 1 91 92
M  V30 68 1 92 93
M  V30 69 1 94 95
M  V30 70 1 95 96
M  V30 71 1 97 98
M  V30 72 1 98 99
M  V30 73 1 2 76
M  V30 74 1 3 67
M  V30 75 1 4 91
M  V30 76 1 5 64
M  V30 77 1 7 73
M  V30 78 1 8 58
M  V30 79 1 9 88
M  V30 80 1 10 55
M  V30 81 1 12 82
M  V30 82 1 13 97
M  V30 83 1 14 85
M  V30 84 1 15 52
M  V30 85 1 17 87
M  V30 86 1 18 49
M  V30 87 1 19 79
M  V30 88 1 20 61
M  V30 89 1 22 75
M  V30 90 1 23 99
M  V30 91 1 24 81
M  V30 92 1 25 46
M  V30 93 1 27 51
M  V30 94 1 28 70
M  V30 95 1 29 93
M  V30 96 1 30 63
M  V30 97 1 32 78
M  V30 98 1 33 72
M  V30 99 1 34 54
M  V30 100 1 35 84
M  V30 101 1 37 48
M  V30 102 1 38 94
M  V30 103 1 39 90
M  V30 104 1 40 66
M  V30 105 1 42 60
M  V30 106 1 43 69
M  V30 107 1 44 96
M  V30 108 1 45 57
M  V30 END BOND
M  V30 END CTAB
M  END

$$$$
