
     RDKit          3D

  0  0  0  0  0  0  0  0  0  0999 V3000
M  V30 BEGIN CTAB
M  V30 COUNTS 99 108 0 0 0
M  V30 BEGIN ATOM
M  V30 1 Pd 3.0329 -1.6751 -0.4795 0
M  V30 2 Pb 3.3024 -1.6196 -1.4402 0
M  V30 3 Pb 2.7602 -1.7278 0.4785 0
M  V30 4 Pb 3.9902 -1.6058 -0.1953 0
M  V30 5 Pb 2.0733 -1.7026 -0.7678 0
M  V30 6 Pd -4.8736 -5.8548 4.2545 0
M  V30 7 Pb -5.1660 -4.9034 4.1686 0
M  V30 8 Pb -4.5247 -5.6761 5.1746 0
M  V30 9 Pb -5.0803 -6.0301 3.2935 0
M  V30 10 Pb -4.5240 -6.7855 4.3264 0
M  V30 11 Pd -0.7713 5.3201 -4.9485 0
M  V30 12 Pb -0.6143 4.6409 -5.6644 0
M  V30 13 Pb -1.5937 4.8312 -4.6521 0
M  V30 14 Pb -0.9176 5.9922 -4.2223 0
M  V30 15 Pb 0.0743 5.7774 -5.2326 0
M  V30 16 Pd 0.2642 6.1411 2.2855 0
M  V30 17 Pb -0.1599 6.7264 1.5973 0
M  V30 18 Pb 1.1630 6.4834 2.0266 0
M  V30 19 Pb -0.6321 5.7540 2.4976 0
M  V30 20 Pb 0.7419 5.4716 2.8590 0
M  V30 21 Pd -4.7191 0.7604 0.1666 0
M  V30 22 Pb -4.9479 0.2333 0.9850 0
M  V30 23 Pb -4.5586 1.3004 -0.6631 0
M  V30 24 Pb -4.5517 1.5609 0.7420 0
M  V30 25 Pb -4.8559 -0.0586 -0.3908 0
M  V30 26 Pd 6.1566 2.5092 0.7459 0
M  V30 27 Pb 5.9767 3.4892 0.7525 0
M  V30 28 Pb 6.5995 2.6121 -0.1437 0
M  V30 29 Pb 6.3064 1.5191 0.7334 0
M  V30 30 Pb 5.6003 2.4572 1.5786 0
M  V30 31 Pd 3.6645 3.1164 -6.1411 0
M  V30 32 Pb 3.7856 2.1338 -6.0175 0
M  V30 33 Pb 4.5268 3.2420 -5.6500 0
M  V30 34 Pb 3.4917 4.1015 -6.1799 0
M  V30 35 Pb 2.7862 2.9682 -6.5937 0
M  V30 36 Pd -2.3283 -4.2329 -0.2481 0
M  V30 37 Pb -3.0769 -3.6967 -0.6447 0
M  V30 38 Pb -1.5740 -4.7973 0.1058 0
M  V30 39 Pb -3.0173 -4.9058 0.0330 0
M  V30 40 Pb -1.6875 -3.5347 -0.5781 0
M  V30 41 Pd -0.3646 -6.0812 4.5064 0
M  V30 42 Pb -0.7998 -5.8795 5.3842 0
M  V30 43 Pb 0.0884 -5.1939 4.4926 0
M  V30 44 Pb -0.0482 -6.2286 3.5686 0
M  V30 45 Pb -0.8371 -6.9597 4.5007 0
M  V30 46 Ag -5.3494 -4.1800 4.1029 0
M  V30 47 Fe -5.2543 -2.1667 2.8474 0
M  V30 48 Ag -5.1584 -0.1533 1.5923 0
M  V30 49 Ag 3.4828 -1.5597 -2.1651 0
M  V30 50 Fe 3.7043 -0.1470 -4.0591 0
M  V30 51 Ag 3.8702 1.4123 -5.8403 0
M  V30 52 Ag -1.3111 5.4557 2.6032 0
M  V30 53 Fe -2.8873 3.8128 1.9289 0
M  V30 54 Ag -4.4049 2.1410 1.1941 0
M  V30 55 Ag 1.8613 6.6459 1.8226 0
M  V30 56 Fe 3.9083 5.5883 1.2715 0
M  V30 57 Ag 5.7690 4.2049 0.7851 0
M  V30 58 Ag 1.1789 4.9550 3.1899 0
M  V30 59 Fe 3.1379 3.6567 2.8178 0
M  V30 60 Ag 5.1131 2.5102 2.1507 0
M  V30 61 Ag -1.0278 6.4713 -3.6556 0
M  V30 62 Fe -0.7858 6.8876 -1.3309 0
M  V30 63 Ag -0.4425 7.0919 1.0090 0
M  V30 64 Ag 2.5561 -1.7862 1.1950 0
M  V30 65 Fe 1.5096 -3.0972 2.8706 0
M  V30 66 Ag 0.4316 -4.5359 4.4162 0
M  V30 67 Ag 6.8412 2.7405 -0.8412 0
M  V30 68 Fe 6.1089 3.0238 -3.0825 0
M  V30 69 Ag 5.1579 3.2688 -5.2448 0
M  V30 70 Ag -2.2046 4.4562 -4.4257 0
M  V30 71 Fe -3.3119 3.0777 -2.8362 0
M  V30 72 Ag -4.4897 1.7007 -1.2970 0
M  V30 73 Ba -4.9507 -0.6804 -0.7997 0
M  V30 74 Ga -4.2851 -1.9969 -0.8702 0
M  V30 75 Ba -3.6446 -3.3240 -0.9690 0
M  V30 76 Ba 0.7245 6.0824 -5.4578 0
M  V30 77 Ga 2.0286 5.4928 -5.8263 0
M  V30 78 Ba 3.3004 4.8278 -6.1787 0
M  V30 79 Ba -4.1767 -7.4439 4.3724 0
M  V30 80 Ga -2.7227 -7.6338 4.4419 0
M  V30 81 Ba -1.2570 -7.5773 4.5020 0
M  V30 82 Ba -4.1574 -5.5641 5.8190 0
M  V30 83 Ga -2.6958 -5.6232 6.0107 0
M  V30 84 Ba -1.2244 -5.7284 5.9841 0
M  V30 85 Ba -0.4581 4.1371 -6.1963 0
M  V30 86 Ga 0.8049 3.4838 -6.5825 0
M  V30 87 Ba 2.1095 2.8779 -6.9018 0
M  V30 88 Ba -5.1507 -6.1857 2.5643 0
M  V30 89 Ga -4.3707 -5.7755 1.3788 0
M  V30 90 Ba -3.5899 -5.3692 0.1926 0
M  V30 91 Ba 4.7045 -1.5346 0.0254 0
M  V30 92 Ga 5.5638 -0.3844 0.3713 0
M  V30 93 Ba 6.4113 0.7752 0.7144 0
M  V30 94 Ba 1.3649 -1.6742 -1.0188 0
M  V30 95 Ga 0.0736 -2.3828 -0.8927 0
M  V30 96 Ba -1.2809 -2.9749 -0.8765 0
M  V30 97 Ba -0.9974 -5.2315 0.3314 0
M  V30 98 Ga -0.4331 -5.7610 1.5933 0
M  V30 99 Ba 0.1444 -6.2987 2.8459 0
M  V30 END ATOM
M  V30 BEGIN BOND
M  V30 1 1 1 2
M  V30 2 1 1 3
M  V30 3 1 1 4
M  V30 4 1 1 5
M  V30 5 1 6 7
M  V30 6 1 6 8
M  V30 7 1 6 9
M  V30 8 1 6 10
M  V30 9 1 11 12
M  V30 10 1 11 13
M  V30 11 1 11 14
M  V30 12 1 11 15
M  V30 13 1 16 17
M  V30 14 1 16 18
M  V30 15 1 16 19
M  V30 16 1 16 20
M  V30 17 1 21 22
M  V30 18 1 21 23
M  V30 19 1 21 24
M  V30 20 1 21 25
M  V30 21 1 26 27
M  V30 22 1 26 28
M  V30 23 1 26 29
M  V30 24 1 26 30
M  V30 25 1 31 32
M  V30 26 1 31 33
M  V30 27 1 31 34
M  V30 28 1 31 35
M  V30 29 1 36 37
M  V30 30 1 36 38
M  V30 31 1 36 39
M  V30 32 1 36 40
M  V30 33 1 41 42
M  V30 34 1 41 43
M  V30 35 1 41 44
M  V30 36 1 41 45
M  V30 37 1 46 47
M  V30 38 1 47 48
M  V30 39 1 49 50
M  V30 40 1 50 51
M  V30 41 1 52 53
M  V30 42 1 53 54
M  V30 43 1 55 56
M  V30 44 1 56 57
M  V30 45 1 58 59
M  V30 46 1 59 60
M  V30 47 1 61 62
M  V30 48 1 62 63
M  V30 49 1 64 65
M  V30 50 1 65 66
M  V30 51 1 67 68
M  V30 52 1 68 69
M  V30 53 1 70 71
M  V30 54 1 71 72
M  V30 55 1 73 74
M  V30 56 1 74 75
M  V30 57 1 76 77
M  V30 58 1 77 78
M  V30 59 1 79 80
M  V30 60 1 80 81
M  V30 61 1 82 83
M  V30 62 1 83 84
M  V30 63 1 85 86
M  V30 64 1 86 87
M  V30 65 1 88 89
M  V30 66 1 89 90
M  V30 67 1 91 92
M  V30 68 1 92 93
M  V30 69 1 94 95
M  V30 70 1 95 96
M  V30 71 1 97 98
M  V30 72 1 98 99
M  V30 73 1 2 49
M  V30 74 1 3 64
M  V30 75 1 4 91
M  V30 76 1 5 94
M  V30 77 1 7 46
M  V30 78 1 8 82
M  V30 79 1 9 88
M  V30 80 1 10 79
M  V30 81 1 12 85
M  V30 82 1 13 70
M  V30 83 1 14 61
M  V30 84 1 15 76
M  V30 85 1 17 63
M  V30 86 1 18 55
M  V30 87 1 19 52
M  V30 88 1 20 58
M  V30 89 1 22 48
M  V30 90 1 23 72
M  V30 91 1 24 54
M  V30 92 1 25 73
M  V30 93 1 27 57
M  V30 94 1 28 67
M  V30 95 1 29 93
M  V30 96 1 30 60
M  V30 97 1 32 51
M  V30 98 1 33 69
M  V30 99 1 34 78
M  V30 100 1 35 87
M  V30 101 1 37 75
M  V30 102 1 38 97
M  V30 103 1 39 90
M  V30 104 1 40 96
M  V30 105 1 42 84
M  V30 106 1 43 66
M  V30 107 1 44 99
M  V30 108 1 45 81
M  V30 END BOND
M  V30 END CTAB
M  END

$$$$
