
     RDKit          3D

  0  0  0  0  0  0  0  0  0  0999 V3000
M  V30 BEGIN CTAB
M  V30 COUNTS 99 108 0 0 0
M  V30 BEGIN ATOM
M  V30 1 Pd -2.3014 5.9911 1.0385 0
M  V30 2 Pb -2.0706 6.9378 0.8035 0
M  V30 3 Pb -2.4446 5.0755 1.4143 0
M  V30 4 Pb -1.7509 5.6286 0.2788 0
M  V30 5 Pb -2.9353 6.3382 1.7281 0
M  V30 6 Pd -4.9386 10.5563 1.3599 0
M  V30 7 Pb -3.9518 10.4083 1.3025 0
M  V30 8 Pb -4.8361 11.4386 0.9105 0
M  V30 9 Pb -5.0198 9.7035 1.8739 0
M  V30 10 Pb -5.9438 10.6143 1.2189 0
M  V30 11 Pd 5.0884 -11.1708 2.2041 0
M  V30 12 Pb 4.1890 -10.7317 2.2645 0
M  V30 13 Pb 6.0288 -11.5380 2.1105 0
M  V30 14 Pb 4.9523 -11.4139 1.2445 0
M  V30 15 Pb 5.3740 -10.8037 3.0884 0
M  V30 16 Pd 9.9426 -9.3194 0.4813 0
M  V30 17 Pb 10.0449 -9.0262 1.4311 0
M  V30 18 Pb 9.6912 -10.2276 0.8393 0
M  V30 19 Pb 9.9487 -8.3729 0.1666 0
M  V30 20 Pb 9.6235 -9.6359 -0.4113 0
M  V30 21 Pd -4.0006 4.1838 -3.4210 0
M  V30 22 Pb -3.0274 4.2293 -3.1836 0
M  V30 23 Pb -4.0335 3.2005 -3.2371 0
M  V30 24 Pb -4.0084 5.1173 -3.7801 0
M  V30 25 Pb -4.9961 4.2265 -3.4899 0
M  V30 26 Pd -8.0896 10.0138 -3.0338 0
M  V30 27 Pb -8.3618 10.2033 -2.0768 0
M  V30 28 Pb -7.8612 10.9757 -3.1533 0
M  V30 29 Pb -8.2883 9.0362 -2.9548 0
M  V30 30 Pb -7.5466 9.7777 -3.8343 0
M  V30 31 Pd 4.0574 -6.4508 0.8772 0
M  V30 32 Pb 4.2017 -6.0657 1.7855 0
M  V30 33 Pb 3.3562 -7.0648 1.2410 0
M  V30 34 Pb 4.8480 -5.9467 0.5296 0
M  V30 35 Pb 3.7854 -6.6808 -0.0541 0
M  V30 36 Pd 0.8803 -0.5568 3.4347 0
M  V30 37 Pb 1.5396 -1.2371 3.7584 0
M  V30 38 Pb 0.1009 0.0577 3.5503 0
M  V30 39 Pb 0.2477 -1.2620 3.1263 0
M  V30 40 Pb 1.5065 -0.9501 2.7571 0
M  V30 41 Pd -0.6530 -2.7974 -3.1265 0
M  V30 42 Pb -1.0048 -3.0995 -2.2448 0
M  V30 43 Pb 0.2373 -2.7878 -2.6643 0
M  V30 44 Pb -0.0744 -3.6092 -3.2186 0
M  V30 45 Pb -1.5039 -2.2909 -3.2625 0
M  V30 46 Ag 9.7613 -7.6746 -0.0217 0
M  V30 47 Fe 7.7417 -6.4313 0.0284 0
M  V30 48 Ag 5.5065 -5.6803 0.2908 0
M  V30 49 Ag -4.8675 12.0513 0.4952 0
M  V30 50 Fe -6.0982 12.4554 -1.4667 0
M  V30 51 Ag -7.5784 11.6581 -3.1093 0
M  V30 52 Ag 1.8731 -1.2494 2.1708 0
M  V30 53 Fe 1.5153 -2.0320 -0.0477 0
M  V30 54 Ag 0.8436 -2.7347 -2.2196 0
M  V30 55 Ag -4.0896 2.4517 -3.2084 0
M  V30 56 Fe -3.1157 0.2845 -3.2366 0
M  V30 57 Ag -2.1297 -1.8773 -3.2613 0
M  V30 58 Ag 5.7908 -10.4702 3.6104 0
M  V30 59 Fe 7.9437 -9.5214 3.3465 0
M  V30 60 Ag 9.8949 -8.9097 2.1533 0
M  V30 61 Ag 5.0826 -11.4950 0.5138 0
M  V30 62 Fe 7.0220 -10.8552 -0.6838 0
M  V30 63 Ag 9.1875 -9.9333 -0.9396 0
M  V30 64 Ag -0.1994 -1.7709 2.8146 0
M  V30 65 Fe -0.8298 -2.6423 0.7038 0
M  V30 66 Ag -1.2165 -3.2645 -1.5491 0
M  V30 67 Ag 4.2106 -5.6734 2.4213 0
M  V30 68 Fe 3.1975 -3.7318 3.3362 0
M  V30 69 Ag 2.0313 -1.7637 3.9696 0
M  V30 70 Ag -2.5186 4.4351 1.7988 0
M  V30 71 Fe -1.5423 2.4556 2.6772 0
M  V30 72 Ag -0.5108 0.4909 3.5252 0
M  V30 73 Ag 3.4951 -6.7316 -0.7407 0
M  V30 74 Fe 1.9500 -5.5720 -2.1196 0
M  V30 75 Ag 0.3693 -4.2138 -3.2563 0
M  V30 76 Ag -4.1264 5.7665 -4.1392 0
M  V30 77 Fe -5.4937 7.6965 -4.3498 0
M  V30 78 Ag -7.0072 9.5244 -4.2844 0
M  V30 79 Ag -5.7278 4.3841 -3.4564 0
M  V30 80 Fe -7.1857 6.2441 -3.2185 0
M  V30 81 Ag -8.3691 8.2900 -2.9811 0
M  V30 82 Ba 3.5338 -10.3620 2.2920 0
M  V30 83 Ga 3.1628 -8.9807 1.9196 0
M  V30 84 Ba 2.8912 -7.5843 1.5195 0
M  V30 85 Ba -1.8671 7.6592 0.7299 0
M  V30 86 Ga -2.5348 8.9608 0.9410 0
M  V30 87 Ba -3.2341 10.2448 1.1569 0
M  V30 88 Ba -6.6945 10.6447 1.0610 0
M  V30 89 Ga -7.5723 10.4933 -0.1429 0
M  V30 90 Ba -8.4698 10.3461 -1.3328 0
M  V30 91 Ba 6.7391 -11.8096 2.0380 0
M  V30 92 Ga 8.0736 -11.3319 1.5747 0
M  V30 93 Ba 9.4191 -10.8800 1.1174 0
M  V30 94 Ba -3.4561 6.5903 2.2037 0
M  V30 95 Ga -4.2535 7.8283 2.2638 0
M  V30 96 Ba -5.0307 9.0803 2.2899 0
M  V30 97 Ba -1.3789 5.3503 -0.3177 0
M  V30 98 Ga -1.8167 4.8178 -1.6302 0
M  V30 99 Ba -2.3237 4.2981 -2.9227 0
M  V30 END ATOM
M  V30 BEGIN BOND
M  V30 1 1 1 2
M  V30 2 1 1 3
M  V30 3 1 1 4
M  V30 4 1 1 5
M  V30 5 1 6 7
M  V30 6 1 6 8
M  V30 7 1 6 9
M  V30 8 1 6 10
M  V30 9 1 11 12
M  V30 10 1 11 13
M  V30 11 1 11 14
M  V30 12 1 11 15
M  V30 13 1 16 17
M  V30 14 1 16 18
M  V30 15 1 16 19
M  V30 16 1 16 20
M  V30 17 1 21 22
M  V30 18 1 21 23
M  V30 19 1 21 24
M  V30 20 1 21 25
M  V30 21 1 26 27
M  V30 22 1 26 28
M  V30 23 1 26 29
M  V30 24 1 26 30
M  V30 25 1 31 32
M  V30 26 1 31 33
M  V30 27 1 31 34
M  V30 28 1 31 35
M  V30 29 1 36 37
M  V30 30 1 36 38
M  V30 31 1 36 39
M  V30 32 1 36 40
M  V30 33 1 41 42
M  V30 34 1 41 43
M  V30 35 1 41 44
M  V30 36 1 41 45
M  V30 37 1 46 47
M  V30 38 1 47 48
M  V30 39 1 49 50
M  V30 40 1 50 51
M  V30 41 1 52 53
M  V30 42 1 53 54
M  V30 43 1 55 56
M  V30 44 1 56 57
M  V30 45 1 58 59
M  V30 46 1 59 60
M  V30 47 1 61 62
M  V30 48 1 62 63
M  V30 49 1 64 65
M  V30 50 1 65 66
M  V30 51 1 67 68
M  V30 52 1 68 69
M  V30 53 1 70 71
M  V30 54 1 71 72
M  V30 55 1 73 74
M  V30 56 1 74 75
M  V30 57 1 76 77
M  V30 58 1 77 78
M  V30 59 1 79 80
M  V30 60 1 80 81
M  V30 61 1 82 83
M  V30 62 1 83 84
M  V30 63 1 85 86
M  V30 64 1 86 87
M  V30 65 1 88 89
M  V30 66 1 89 90
M  V30 67 1 91 92
M  V30 68 1 92 93
M  V30 69 1 94 95
M  V30 70 1 95 96
M  V30 71 1 97 98
M  V30 72 1 98 99
M  V30 73 1 2 85
M  V30 74 1 3 70
M  V30 75 1 4 97
M  V30 76 1 5 94
M  V30 77 1 7 87
M  V30 78 1 8 49
M  V30 79 1 9 96
M  V30 80 1 10 88
M  V30 81 1 12 82
M  V30 82 1 13 91
M  V30 83 1 14 61
M  V30 84 1 15 58
M  V30 85 1 17 60
M  V30 86 1 18 93
M  V30 87 1 19 46
M  V30 88 1 20 63
M  V30 89 1 22 99
M  V30 90 1 23 55
M  V30 91 1 24 76
M  V30 92 1 25 79
M  V30 93 1 27 90
M  V30 94 1 28 51
M  V30 95 1 29 81
M  V30 96 1 30 78
M  V30 97 1 32 67
M  V30 98 1 33 84
M  V30 99 1 34 48
M  V30 100 1 35 73
M  V30 101 1 37 69
M  V30 102 1 38 72
M  V30 103 1 39 64
M  V30 104 1 40 52
M  V30 105 1 42 66
M  V30 106 1 43 54
M  V30 107 1 44 75
M  V30 108 1 45 57
M  V30 END BOND
M  V30 END CTAB
M  END

$$$$
