
     RDKit          3D

  0  0  0  0  0  0  0  0  0  0999 V3000
M  V30 BEGIN CTAB
M  V30 COUNTS 99 108 0 0 0
M  V30 BEGIN ATOM
M  V30 1 Pd 9.8420 -0.7951 1.1504 0
M  V30 2 Pb 9.4257 -0.9734 0.2603 0
M  V30 3 Pb 9.8068 0.1949 1.0183 0
M  V30 4 Pb 10.1826 -0.6051 2.0790 0
M  V30 5 Pb 9.7219 -1.7422 1.4459 0
M  V30 6 Pd -0.2822 0.8225 -3.7304 0
M  V30 7 Pb 0.3282 1.2662 -3.0666 0
M  V30 8 Pb 0.4659 0.6701 -4.3760 0
M  V30 9 Pb -0.9969 0.8949 -3.0436 0
M  V30 10 Pb -0.9373 0.3592 -4.3256 0
M  V30 11 Pd -5.3880 0.2586 0.5947 0
M  V30 12 Pb -5.0766 -0.6446 0.2993 0
M  V30 13 Pb -4.5464 0.6932 0.2639 0
M  V30 14 Pb -6.2935 -0.1295 0.7741 0
M  V30 15 Pb -5.7275 1.1290 0.9507 0
M  V30 16 Pd -5.1548 2.0091 -3.9339 0
M  V30 17 Pb -4.3639 2.1172 -3.3273 0
M  V30 18 Pb -5.5429 2.8761 -3.6255 0
M  V30 19 Pb -4.7314 1.1970 -4.3367 0
M  V30 20 Pb -6.0285 1.8207 -4.3880 0
M  V30 21 Pd 3.2539 -2.3168 -2.7066 0
M  V30 22 Pb 3.2132 -2.7176 -1.7869 0
M  V30 23 Pb 3.2416 -1.8450 -3.5878 0
M  V30 24 Pb 4.2335 -2.1303 -2.6232 0
M  V30 25 Pb 2.2919 -2.5441 -2.8358 0
M  V30 26 Pd 7.5373 0.3795 6.0172 0
M  V30 27 Pb 8.4789 0.2637 5.6795 0
M  V30 28 Pb 6.5764 0.4778 6.2709 0
M  V30 29 Pb 7.5935 1.3230 5.6923 0
M  V30 30 Pb 7.5084 -0.6142 6.1197 0
M  V30 31 Pd -0.8849 -3.2570 0.5798 0
M  V30 32 Pb -0.7624 -3.2948 -0.4084 0
M  V30 33 Pb -1.0252 -3.1940 1.5721 0
M  V30 34 Pb 0.1099 -3.3406 0.6944 0
M  V30 35 Pb -1.8698 -3.2025 0.4132 0
M  V30 36 Pd -9.0768 2.4547 -1.3090 0
M  V30 37 Pb -8.7556 3.3045 -1.7113 0
M  V30 38 Pb -9.2656 1.5748 -0.8713 0
M  V30 39 Pb -8.8059 2.8097 -0.4191 0
M  V30 40 Pb -9.1858 2.0871 -2.2354 0
M  V30 41 Pd 0.2127 0.5371 3.4228 0
M  V30 42 Pb -0.5258 0.5468 2.7558 0
M  V30 43 Pb 0.9233 0.5714 4.1265 0
M  V30 44 Pb -0.2367 -0.2226 3.8863 0
M  V30 45 Pb 0.6978 1.1675 2.8129 0
M  V30 46 Ag 5.8449 0.5425 6.4167 0
M  V30 47 Fe 3.6334 0.5754 5.5518 0
M  V30 48 Ag 1.4221 0.6079 4.6866 0
M  V30 49 Ag 0.7135 1.5862 -2.5010 0
M  V30 50 Fe 0.9670 1.6672 -0.1349 0
M  V30 51 Ag 1.0158 1.5428 2.2422 0
M  V30 52 Ag 9.6766 0.9184 1.1536 0
M  V30 53 Fe 8.7123 1.8869 3.0887 0
M  V30 54 Ag 7.7378 1.9065 5.2481 0
M  V30 55 Ag 9.0737 -1.1015 -0.3881 0
M  V30 56 Fe 7.0220 -1.5539 -1.4951 0
M  V30 57 Ag 4.9738 -2.0059 -2.6088 0
M  V30 58 Ag 9.5343 -2.3283 1.8701 0
M  V30 59 Fe 8.5282 -2.3105 4.0149 0
M  V30 60 Ag 7.5952 -1.3401 5.9644 0
M  V30 61 Ag -1.4616 0.9013 -2.4635 0
M  V30 62 Fe -1.4296 0.7588 -0.1010 0
M  V30 63 Ag -1.0511 0.5957 2.2300 0
M  V30 64 Ba 1.0458 0.4974 -4.8189 0
M  V30 65 Ga 2.1432 -0.4594 -4.5867 0
M  V30 66 Ba 3.1759 -1.4452 -4.2184 0
M  V30 67 Ba 10.4197 -0.4601 2.7834 0
M  V30 68 Ga 9.7846 -0.1446 4.0880 0
M  V30 69 Ba 9.1792 0.1727 5.4062 0
M  V30 70 Ba -3.9620 1.0422 -0.0603 0
M  V30 71 Ga -3.8299 1.6113 -1.4211 0
M  V30 72 Ba -3.8220 2.1395 -2.8046 0
M  V30 73 Ba -7.0041 -0.3708 0.8184 0
M  V30 74 Ga -8.2098 0.2169 0.1984 0
M  V30 75 Ba -9.3076 0.9325 -0.4841 0
M  V30 76 Ba 3.1468 -2.9847 -1.0845 0
M  V30 77 Ga 2.0052 -3.2066 -0.1661 0
M  V30 78 Ba 0.8585 -3.4256 0.7465 0
M  V30 79 Ba -6.0510 1.7441 1.2321 0
M  V30 80 Ga -7.2630 2.4554 0.7964 0
M  V30 81 Ba -8.4802 3.0380 0.2114 0
M  V30 82 Ba -6.7290 1.6712 -4.6209 0
M  V30 83 Ga -7.9904 1.7376 -3.8481 0
M  V30 84 Ba -9.1630 1.8541 -2.9515 0
M  V30 85 Ba -4.8954 -1.3489 0.1152 0
M  V30 86 Ga -3.7199 -2.2380 0.1857 0
M  V30 87 Ba -2.5953 -3.1924 0.2211 0
M  V30 88 Ba -1.4857 0.0153 -4.7028 0
M  V30 89 Ga -2.9362 0.2826 -4.7219 0
M  V30 90 Ba -4.3681 0.6334 -4.6740 0
M  V30 91 Ba 1.5782 -2.7354 -2.9449 0
M  V30 92 Ga 0.4424 -3.0215 -2.0563 0
M  V30 93 Ba -0.6807 -3.3035 -1.1504 0
M  V30 94 Ba -5.8744 3.5235 -3.4474 0
M  V30 95 Ga -7.1306 3.8008 -2.7394 0
M  V30 96 Ba -8.3983 3.8864 -2.0043 0
M  V30 97 Ba -1.1385 -3.1213 2.3141 0
M  V30 98 Ga -0.8753 -2.0253 3.2683 0
M  V30 99 Ba -0.5586 -0.8575 4.1145 0
M  V30 END ATOM
M  V30 BEGIN BOND
M  V30 1 1 1 2
M  V30 2 1 1 3
M  V30 3 1 1 4
M  V30 4 1 1 5
M  V30 5 1 6 7
M  V30 6 1 6 8
M  V30 7 1 6 9
M  V30 8 1 6 10
M  V30 9 1 11 12
M  V30 10 1 11 13
M  V30 11 1 11 14
M  V30 12 1 11 15
M  V30 13 1 16 17
M  V30 14 1 16 18
M  V30 15 1 16 19
M  V30 16 1 16 20
M  V30 17 1 21 22
M  V30 18 1 21 23
M  V30 19 1 21 24
M  V30 20 1 21 25
M  V30 21 1 26 27
M  V30 22 1 26 28
M  V30 23 1 26 29
M  V30 24 1 26 30
M  V30 25 1 31 32
M  V30 26 1 31 33
M  V30 27 1 31 34
M  V30 28 1 31 35
M  V30 29 1 36 37
M  V30 30 1 36 38
M  V30 31 1 36 39
M  V30 32 1 36 40
M  V30 33 1 41 42
M  V30 34 1 41 43
M  V30 35 1 41 44
M  V30 36 1 41 45
M  V30 37 1 46 47
M  V30 38 1 47 48
M  V30 39 1 49 50
M  V30 40 1 50 51
M  V30 41 1 52 53
M  V30 42 1 53 54
M  V30 43 1 55 56
M  V30 44 1 56 57
M  V30 45 1 58 59
M  V30 46 1 59 60
M  V30 47 1 61 62
M  V30 48 1 62 63
M  V30 49 1 64 65
M  V30 50 1 65 66
M  V30 51 1 67 68
M  V30 52 1 68 69
M  V30 53 1 70 71
M  V30 54 1 71 72
M  V30 55 1 73 74
M  V30 56 1 74 75
M  V30 57 1 76 77
M  V30 58 1 77 78
M  V30 59 1 79 80
M  V30 60 1 80 81
M  V30 61 1 82 83
M  V30 62 1 83 84
M  V30 63 1 85 86
M  V30 64 1 86 87
M  V30 65 1 88 89
M  V30 66 1 89 90
M  V30 67 1 91 92
M  V30 68 1 92 93
M  V30 69 1 94 95
M  V30 70 1 95 96
M  V30 71 1 97 98
M  V30 72 1 98 99
M  V30 73 1 2 55
M  V30 74 1 3 52
M  V30 75 1 4 67
M  V30 76 1 5 58
M  V30 77 1 7 49
M  V30 78 1 8 64
M  V30 79 1 9 61
M  V30 80 1 10 88
M  V30 81 1 12 85
M  V30 82 1 13 70
M  V30 83 1 14 73
M  V30 84 1 15 79
M  V30 85 1 17 72
M  V30 86 1 18 94
M  V30 87 1 19 90
M  V30 88 1 20 82
M  V30 89 1 22 76
M  V30 90 1 23 66
M  V30 91 1 24 57
M  V30 92 1 25 91
M  V30 93 1 27 69
M  V30 94 1 28 46
M  V30 95 1 29 54
M  V30 96 1 30 60
M  V30 97 1 32 93
M  V30 98 1 33 97
M  V30 99 1 34 78
M  V30 100 1 35 87
M  V30 101 1 37 96
M  V30 102 1 38 75
M  V30 103 1 39 81
M  V30 104 1 40 84
M  V30 105 1 42 63
M  V30 106 1 43 48
M  V30 107 1 44 99
M  V30 108 1 45 51
M  V30 END BOND
M  V30 END CTAB
M  END

$$$$
