
     RDKit          3D

  0  0  0  0  0  0  0  0  0  0999 V3000
M  V30 BEGIN CTAB
M  V30 COUNTS 99 108 0 0 0
M  V30 BEGIN ATOM
M  V30 1 Pd 2.2324 4.6723 2.0501 0
M  V30 2 Pb 2.2476 4.4123 3.0180 0
M  V30 3 Pb 1.3260 5.0788 2.1869 0
M  V30 4 Pb 3.1579 4.3243 1.8956 0
M  V30 5 Pb 2.2078 4.8952 1.0769 0
M  V30 6 Pd -6.5217 1.3017 0.1446 0
M  V30 7 Pb -5.7078 0.7924 0.4153 0
M  V30 8 Pb -6.6304 1.6794 1.0654 0
M  V30 9 Pb -6.3484 1.0026 -0.7932 0
M  V30 10 Pb -7.2469 1.9131 -0.1625 0
M  V30 11 Pd -1.3773 -5.2075 1.7242 0
M  V30 12 Pb -0.6770 -5.2371 2.4313 0
M  V30 13 Pb -2.0299 -5.1571 0.9687 0
M  V30 14 Pb -0.9842 -6.0047 1.2703 0
M  V30 15 Pb -1.6876 -4.3491 2.1457 0
M  V30 16 Pd 3.5882 -5.5778 -3.3432 0
M  V30 17 Pb 3.0437 -6.3055 -2.9310 0
M  V30 18 Pb 4.1164 -4.7867 -3.6556 0
M  V30 19 Pb 2.8511 -5.4082 -4.0005 0
M  V30 20 Pb 4.2975 -5.7062 -2.6513 0
M  V30 21 Pd -0.8972 -2.7928 -2.8935 0
M  V30 22 Pb -1.2156 -2.2531 -2.1152 0
M  V30 23 Pb -1.5452 -3.4901 -2.5852 0
M  V30 24 Pb -0.5537 -3.3691 -3.6378 0
M  V30 25 Pb -0.2888 -2.0658 -3.2164 0
M  V30 26 Pd 7.3472 -0.9202 0.5575 0
M  V30 27 Pb 7.2051 -0.9804 -0.4326 0
M  V30 28 Pb 7.3873 -0.8705 1.5541 0
M  V30 29 Pb 7.2265 0.0707 0.5685 0
M  V30 30 Pb 7.3848 -1.9178 0.5561 0
M  V30 31 Pd 2.1187 0.0402 5.2898 0
M  V30 32 Pb 2.0856 1.0418 5.3412 0
M  V30 33 Pb 3.1092 0.0565 5.4168 0
M  V30 34 Pb 1.1449 -0.0492 5.0609 0
M  V30 35 Pb 2.1570 -0.9552 5.2567 0
M  V30 36 Pd -1.0619 2.6570 -4.2756 0
M  V30 37 Pb -0.4509 1.8636 -4.3122 0
M  V30 38 Pb -1.6507 3.4599 -4.1793 0
M  V30 39 Pb -1.8698 2.0831 -4.4042 0
M  V30 40 Pb -0.2896 3.2407 -4.0368 0
M  V30 41 Pd -5.4811 5.7756 0.7172 0
M  V30 42 Pb -5.8151 5.3280 1.5458 0
M  V30 43 Pb -4.6143 5.9934 1.1702 0
M  V30 44 Pb -5.1167 6.0815 -0.1607 0
M  V30 45 Pb -6.3423 5.5278 0.2724 0
M  V30 46 Ag -5.0493 0.4613 0.5426 0
M  V30 47 Fe -3.2444 -0.7340 -0.4308 0
M  V30 48 Ag -1.4910 -1.9235 -1.5008 0
M  V30 49 Ag 4.5414 -4.1776 -3.7704 0
M  V30 50 Fe 5.8318 -2.5634 -2.5949 0
M  V30 51 Ag 7.0382 -1.1056 -1.1554 0
M  V30 52 Ag -1.8213 -3.6889 2.4889 0
M  V30 53 Fe -0.7993 -1.8942 3.6761 0
M  V30 54 Ag 0.4467 -0.2262 4.8340 0
M  V30 55 Ag -0.1440 -5.1688 2.9477 0
M  V30 56 Fe 1.0795 -3.5384 4.1554 0
M  V30 57 Ag 2.1379 -1.6999 5.2108 0
M  V30 58 Ag 4.8308 -5.7190 -2.1257 0
M  V30 59 Fe 6.1639 -4.3184 -0.7500 0
M  V30 60 Ag 7.3363 -2.6603 0.4777 0
M  V30 61 Ag -0.6509 -6.5380 0.8657 0
M  V30 62 Fe 0.9609 -6.8394 -0.8481 0
M  V30 63 Ag 2.6090 -6.7821 -2.5529 0
M  V30 64 Ag -6.1325 0.8210 -1.4875 0
M  V30 65 Fe -4.3894 1.1601 -3.0632 0
M  V30 66 Ag -2.5069 1.6889 -4.4095 0
M  V30 67 Ag 3.8553 4.1108 1.7163 0
M  V30 68 Fe 5.4825 2.4670 1.1775 0
M  V30 69 Ag 7.0917 0.8031 0.6460 0
M  V30 70 Ag 2.2073 5.0103 0.3370 0
M  V30 71 Fe 1.2899 4.4163 -1.7687 0
M  V30 72 Ag 0.2441 3.6907 -3.7708 0
M  V30 73 Ag -2.0662 4.0717 -4.0521 0
M  V30 74 Fe -3.4611 5.2283 -2.5176 0
M  V30 75 Ag -4.8300 6.2049 -0.8413 0
M  V30 76 Ag 0.6644 5.4179 2.3050 0
M  V30 77 Fe -1.6517 5.7532 1.8849 0
M  V30 78 Ag -3.9681 6.1478 1.5224 0
M  V30 79 Ag 7.3223 -0.7746 2.2937 0
M  V30 80 Fe 5.7068 -0.3776 3.9861 0
M  V30 81 Ag 3.8559 0.0043 5.4214 0
M  V30 82 Ba 2.2256 4.2287 3.7474 0
M  V30 83 Ga 2.1602 2.9900 4.5526 0
M  V30 84 Ba 2.0934 1.7914 5.4162 0
M  V30 85 Ba 0.1696 -1.5422 -3.5002 0
M  V30 86 Ga 0.0766 -0.1220 -3.8966 0
M  V30 87 Ba 0.0423 1.2958 -4.3109 0
M  V30 88 Ba 2.2722 -5.2863 -4.4650 0
M  V30 89 Ga 1.0019 -4.5405 -4.3422 0
M  V30 90 Ba -0.2602 -3.7862 -4.1906 0
M  V30 91 Ba -7.7099 2.4595 -0.3736 0
M  V30 92 Ga -7.4360 3.9003 -0.2485 0
M  V30 93 Ba -6.9804 5.2844 -0.0380 0
M  V30 94 Ba -6.6930 2.0421 1.7202 0
M  V30 95 Ga -6.4044 3.4603 2.0073 0
M  V30 96 Ba -6.0652 4.8930 2.1023 0
M  V30 97 Ba -2.4595 -5.1616 0.3539 0
M  V30 98 Ga -2.2864 -4.5683 -0.9864 0
M  V30 99 Ba -2.0682 -3.9538 -2.3105 0
M  V30 END ATOM
M  V30 BEGIN BOND
M  V30 1 1 1 2
M  V30 2 1 1 3
M  V30 3 1 1 4
M  V30 4 1 1 5
M  V30 5 1 6 7
M  V30 6 1 6 8
M  V30 7 1 6 9
M  V30 8 1 6 10
M  V30 9 1 11 12
M  V30 10 1 11 13
M  V30 11 1 11 14
M  V30 12 1 11 15
M  V30 13 1 16 17
M  V30 14 1 16 18
M  V30 15 1 16 19
M  V30 16 1 16 20
M  V30 17 1 21 22
M  V30 18 1 21 23
M  V30 19 1 21 24
M  V30 20 1 21 25
M  V30 21 1 26 27
M  V30 22 1 26 28
M  V30 23 1 26 29
M  V30 24 1 26 30
M  V30 25 1 31 32
M  V30 26 1 31 33
M  V30 27 1 31 34
M  V30 28 1 31 35
M  V30 29 1 36 37
M  V30 30 1 36 38
M  V30 31 1 36 39
M  V30 32 1 36 40
M  V30 33 1 41 42
M  V30 34 1 41 43
M  V30 35 1 41 44
M  V30 36 1 41 45
M  V30 37 1 46 47
M  V30 38 1 47 48
M  V30 39 1 49 50
M  V30 40 1 50 51
M  V30 41 1 52 53
M  V30 42 1 53 54
M  V30 43 1 55 56
M  V30 44 1 56 57
M  V30 45 1 58 59
M  V30 46 1 59 60
M  V30 47 1 61 62
M  V30 48 1 62 63
M  V30 49 1 64 65
M  V30 50 1 65 66
M  V30 51 1 67 68
M  V30 52 1 68 69
M  V30 53 1 70 71
M  V30 54 1 71 72
M  V30 55 1 73 74
M  V30 56 1 74 75
M  V30 57 1 76 77
M  V30 58 1 77 78
M  V30 59 1 79 80
M  V30 60 1 80 81
M  V30 61 1 82 83
M  V30 62 1 83 84
M  V30 63 1 85 86
M  V30 64 1 86 87
M  V30 65 1 88 89
M  V30 66 1 89 90
M  V30 67 1 91 92
M  V30 68 1 92 93
M  V30 69 1 94 95
M  V30 70 1 95 96
M  V30 71 1 97 98
M  V30 72 1 98 99
M  V30 73 1 2 82
M  V30 74 1 3 76
M  V30 75 1 4 67
M  V30 76 1 5 70
M  V30 77 1 7 46
M  V30 78 1 8 94
M  V30 79 1 9 64
M  V30 80 1 10 91
M  V30 81 1 12 55
M  V30 82 1 13 97
M  V30 83 1 14 61
M  V30 84 1 15 52
M  V30 85 1 17 63
M  V30 86 1 18 49
M  V30 87 1 19 88
M  V30 88 1 20 58
M  V30 89 1 22 48
M  V30 90 1 23 99
M  V30 91 1 24 90
M  V30 92 1 25 85
M  V30 93 1 27 51
M  V30 94 1 28 79
M  V30 95 1 29 69
M  V30 96 1 30 60
M  V30 97 1 32 84
M  V30 98 1 33 81
M  V30 99 1 34 54
M  V30 100 1 35 57
M  V30 101 1 37 87
M  V30 102 1 38 73
M  V30 103 1 39 66
M  V30 104 1 40 72
M  V30 105 1 42 96
M  V30 106 1 43 78
M  V30 107 1 44 75
M  V30 108 1 45 93
M  V30 END BOND
M  V30 END CTAB
M  END

$$$$
