
     RDKit          3D

  0  0  0  0  0  0  0  0  0  0999 V3000
M  V30 BEGIN CTAB
M  V30 COUNTS 99 108 0 0 0
M  V30 BEGIN ATOM
M  V30 1 Pd 3.2050 6.5905 -4.4076 0
M  V30 2 Pb 2.2929 6.2226 -4.5871 0
M  V30 3 Pb 3.3670 6.7943 -5.3742 0
M  V30 4 Pb 4.1122 6.9574 -4.2208 0
M  V30 5 Pb 3.2443 6.1571 -3.4993 0
M  V30 6 Pd 3.1284 -2.8619 5.5202 0
M  V30 7 Pb 2.3891 -2.5576 6.1182 0
M  V30 8 Pb 2.6394 -3.7206 5.3676 0
M  V30 9 Pb 3.5166 -1.9456 5.6241 0
M  V30 10 Pb 3.8305 -3.1113 4.8519 0
M  V30 11 Pd 6.8111 3.5977 -3.7583 0
M  V30 12 Pb 6.1962 3.6921 -2.9670 0
M  V30 13 Pb 6.6548 2.6123 -3.8318 0
M  V30 14 Pb 6.9721 4.5786 -3.6915 0
M  V30 15 Pb 7.1835 3.6432 -4.6866 0
M  V30 16 Pd -3.4824 -5.3301 -1.8144 0
M  V30 17 Pb -4.3178 -4.9517 -2.2212 0
M  V30 18 Pb -2.6465 -5.6536 -1.3812 0
M  V30 19 Pb -2.8998 -4.7763 -2.4154 0
M  V30 20 Pb -3.9923 -5.9171 -1.1848 0
M  V30 21 Pd -5.9254 -0.9348 -0.6891 0
M  V30 22 Pb -5.8159 -0.1962 -1.3560 0
M  V30 23 Pb -6.0867 -1.6619 -0.0088 0
M  V30 24 Pb -6.1876 -1.5750 -1.4126 0
M  V30 25 Pb -5.5780 -0.3662 0.0527 0
M  V30 26 Pd -3.6833 -4.7806 3.1422 0
M  V30 27 Pb -3.9375 -5.6303 2.6828 0
M  V30 28 Pb -2.8273 -5.1664 3.4918 0
M  V30 29 Pb -3.4700 -3.8845 3.5242 0
M  V30 30 Pb -4.5264 -4.3833 2.7603 0
M  V30 31 Pd 3.5860 -3.3568 -1.7616 0
M  V30 32 Pb 2.8349 -3.2472 -2.4179 0
M  V30 33 Pb 3.0074 -4.0094 -1.2812 0
M  V30 34 Pb 4.2620 -3.4486 -1.0309 0
M  V30 35 Pb 4.1749 -2.7331 -2.2765 0
M  V30 36 Pd -3.2435 3.9199 -1.2942 0
M  V30 37 Pb -3.9180 3.3704 -1.7880 0
M  V30 38 Pb -3.6568 3.7094 -0.4071 0
M  V30 39 Pb -2.7867 4.1370 -2.1564 0
M  V30 40 Pb -2.5551 4.4382 -0.7884 0
M  V30 41 Pd -0.3863 3.1931 5.2538 0
M  V30 42 Pb -0.2169 3.8831 4.5526 0
M  V30 43 Pb -1.3446 3.2071 4.9665 0
M  V30 44 Pb 0.5898 3.0786 5.4414 0
M  V30 45 Pb -0.5428 2.4401 5.8901 0
M  V30 46 Ag -2.3879 -4.4018 -2.8231 0
M  V30 47 Fe -0.1033 -3.7427 -2.9279 0
M  V30 48 Ag 2.2093 -3.1879 -2.8343 0
M  V30 49 Ag 1.6035 5.9511 -4.7027 0
M  V30 50 Fe -0.4228 5.1219 -3.7834 0
M  V30 51 Ag -2.4165 4.3033 -2.7865 0
M  V30 52 Ag -1.9980 -5.8338 -1.0612 0
M  V30 53 Fe 0.2967 -5.2606 -0.9289 0
M  V30 54 Ag 2.5401 -4.5008 -0.9716 0
M  V30 55 Ag 2.1964 -4.3117 5.2373 0
M  V30 56 Fe 0.0313 -4.9567 4.5009 0
M  V30 57 Ag -2.1703 -5.4319 3.7432 0
M  V30 58 Ag 3.7254 6.7454 -6.0285 0
M  V30 59 Fe 5.6409 5.3842 -6.3129 0
M  V30 60 Ag 7.2133 3.8693 -5.3987 0
M  V30 61 Ag -5.2518 -0.1164 0.6734 0
M  V30 62 Fe -4.2010 -1.2910 2.4351 0
M  V30 63 Ag -3.4181 -3.1545 3.6609 0
M  V30 64 Ag 4.3215 -3.2617 4.3041 0
M  V30 65 Fe 4.6268 -3.4221 1.9537 0
M  V30 66 Ag 4.6885 -3.5236 -0.4187 0
M  V30 67 Ag -3.8821 3.5887 0.2992 0
M  V30 68 Fe -3.0934 3.3748 2.5304 0
M  V30 69 Ag -2.0226 3.2001 4.6444 0
M  V30 70 Ag -2.0533 4.7801 -0.3500 0
M  V30 71 Fe -1.0154 4.6929 1.7822 0
M  V30 72 Ag -0.1573 4.3446 3.9669 0
M  V30 73 Ag 1.8288 -2.2443 6.5024 0
M  V30 74 Fe 0.5186 -0.2678 6.5657 0
M  V30 75 Ag -0.5673 1.8264 6.3167 0
M  V30 76 Ag 3.6872 -1.2183 5.6975 0
M  V30 77 Fe 2.6566 0.9222 5.6616 0
M  V30 78 Ag 1.3022 2.8714 5.5565 0
M  V30 79 Ag 6.5582 1.8716 -3.9028 0
M  V30 80 Fe 5.5646 -0.1876 -3.2584 0
M  V30 81 Ag 4.6236 -2.2922 -2.6859 0
M  V30 82 Ba -5.7718 0.3562 -1.8633 0
M  V30 83 Ga -5.0784 1.6521 -1.9997 0
M  V30 84 Ba -4.4055 2.9538 -2.1777 0
M  V30 85 Ba 3.3944 5.7594 -2.8695 0
M  V30 86 Ga 4.5041 4.8001 -2.6014 0
M  V30 87 Ba 5.6576 3.8657 -2.4605 0
M  V30 88 Ba 4.8101 7.1749 -4.0736 0
M  V30 89 Ga 5.9849 6.3246 -3.8511 0
M  V30 90 Ba 7.0373 5.3207 -3.6576 0
M  V30 91 Ba -4.2849 -6.3814 -0.6723 0
M  V30 92 Ga -4.2655 -6.3422 0.8026 0
M  V30 93 Ba -4.1933 -6.2006 2.2696 0
M  V30 94 Ba -4.9340 -4.6352 -2.5174 0
M  V30 95 Ga -5.6589 -3.3752 -2.2464 0
M  V30 96 Ba -6.3388 -2.1017 -1.9266 0
M  V30 97 Ba -6.2690 -2.1875 0.5064 0
M  V30 98 Ga -5.6564 -3.1317 1.4743 0
M  V30 99 Ba -5.1749 -4.1149 2.4769 0
M  V30 END ATOM
M  V30 BEGIN BOND
M  V30 1 1 1 2
M  V30 2 1 1 3
M  V30 3 1 1 4
M  V30 4 1 1 5
M  V30 5 1 6 7
M  V30 6 1 6 8
M  V30 7 1 6 9
M  V30 8 1 6 10
M  V30 9 1 11 12
M  V30 10 1 11 13
M  V30 11 1 11 14
M  V30 12 1 11 15
M  V30 13 1 16 17
M  V30 14 1 16 18
M  V30 15 1 16 19
M  V30 16 1 16 20
M  V30 17 1 21 22
M  V30 18 1 21 23
M  V30 19 1 21 24
M  V30 20 1 21 25
M  V30 21 1 26 27
M  V30 22 1 26 28
M  V30 23 1 26 29
M  V30 24 1 26 30
M  V30 25 1 31 32
M  V30 26 1 31 33
M  V30 27 1 31 34
M  V30 28 1 31 35
M  V30 29 1 36 37
M  V30 30 1 36 38
M  V30 31 1 36 39
M  V30 32 1 36 40
M  V30 33 1 41 42
M  V30 34 1 41 43
M  V30 35 1 41 44
M  V30 36 1 41 45
M  V30 37 1 46 47
M  V30 38 1 47 48
M  V30 39 1 49 50
M  V30 40 1 50 51
M  V30 41 1 52 53
M  V30 42 1 53 54
M  V30 43 1 55 56
M  V30 44 1 56 57
M  V30 45 1 58 59
M  V30 46 1 59 60
M  V30 47 1 61 62
M  V30 48 1 62 63
M  V30 49 1 64 65
M  V30 50 1 65 66
M  V30 51 1 67 68
M  V30 52 1 68 69
M  V30 53 1 70 71
M  V30 54 1 71 72
M  V30 55 1 73 74
M  V30 56 1 74 75
M  V30 57 1 76 77
M  V30 58 1 77 78
M  V30 59 1 79 80
M  V30 60 1 80 81
M  V30 61 1 82 83
M  V30 62 1 83 84
M  V30 63 1 85 86
M  V30 64 1 86 87
M  V30 65 1 88 89
M  V30 66 1 89 90
M  V30 67 1 91 92
M  V30 68 1 92 93
M  V30 69 1 94 95
M  V30 70 1 95 96
M  V30 71 1 97 98
M  V30 72 1 98 99
M  V30 73 1 2 49
M  V30 74 1 3 58
M  V30 75 1 4 88
M  V30 76 1 5 85
M  V30 77 1 7 73
M  V30 78 1 8 55
M  V30 79 1 9 76
M  V30 80 1 10 64
M  V30 81 1 12 87
M  V30 82 1 13 79
M  V30 83 1 14 90
M  V30 84 1 15 60
M  V30 85 1 17 94
M  V30 86 1 18 52
M  V30 87 1 19 46
M  V30 88 1 20 91
M  V30 89 1 22 82
M  V30 90 1 23 97
M  V30 91 1 24 96
M  V30 92 1 25 61
M  V30 93 1 27 93
M  V30 94 1 28 57
M  V30 95 1 29 63
M  V30 96 1 30 99
M  V30 97 1 32 48
M  V30 98 1 33 54
M  V30 99 1 34 66
M  V30 100 1 35 81
M  V30 101 1 37 84
M  V30 102 1 38 67
M  V30 103 1 39 51
M  V30 104 1 40 70
M  V30 105 1 42 72
M  V30 106 1 43 69
M  V30 107 1 44 78
M  V30 108 1 45 75
M  V30 END BOND
M  V30 END CTAB
M  END

$$$$
