
     RDKit          3D

  0  0  0  0  0  0  0  0  0  0999 V3000
M  V30 BEGIN CTAB
M  V30 COUNTS 99 108 0 0 0
M  V30 BEGIN ATOM
M  V30 1 Pd 4.9234 3.7393 -2.8936 0
M  V30 2 Pb 4.6397 4.6881 -3.0096 0
M  V30 3 Pb 5.0770 2.7307 -2.7703 0
M  V30 4 Pb 4.4363 3.5773 -3.7372 0
M  V30 5 Pb 5.4356 3.9809 -2.0672 0
M  V30 6 Pd 1.5479 -5.6334 0.8679 0
M  V30 7 Pb 0.7794 -5.8679 1.4640 0
M  V30 8 Pb 1.0513 -6.0211 0.0940 0
M  V30 9 Pb 2.3000 -5.3357 0.2722 0
M  V30 10 Pb 2.0184 -5.3055 1.6854 0
M  V30 11 Pd -5.0356 0.6259 -1.3458 0
M  V30 12 Pb -4.7567 0.8318 -2.2730 0
M  V30 13 Pb -5.5145 -0.1545 -1.7590 0
M  V30 14 Pb -4.5850 1.4840 -1.0110 0
M  V30 15 Pb -5.3777 0.4482 -0.4118 0
M  V30 16 Pd -1.5724 5.7001 -2.0066 0
M  V30 17 Pb -1.8731 5.3302 -2.8743 0
M  V30 18 Pb -0.8647 6.2325 -2.4669 0
M  V30 19 Pb -2.2201 5.0863 -1.5016 0
M  V30 20 Pb -1.1845 6.0830 -1.1703 0
M  V30 21 Pd 2.0424 -0.3844 6.4373 0
M  V30 22 Pb 1.8400 0.5770 6.6011 0
M  V30 23 Pb 1.0742 -0.5995 6.5653 0
M  V30 24 Pb 2.9807 -0.1083 6.2299 0
M  V30 25 Pb 2.2748 -1.3193 6.1775 0
M  V30 26 Pd -4.7477 -2.6201 3.3720 0
M  V30 27 Pb -4.2243 -2.1562 4.0875 0
M  V30 28 Pb -5.2868 -3.1376 2.7165 0
M  V30 29 Pb -4.2243 -3.4515 3.5559 0
M  V30 30 Pb -5.2128 -1.7792 3.0798 0
M  V30 31 Pd 2.8590 -1.9797 -3.4663 0
M  V30 32 Pb 2.1166 -2.5460 -3.8255 0
M  V30 33 Pb 3.5798 -1.3139 -3.1568 0
M  V30 34 Pb 2.5796 -1.3634 -4.1851 0
M  V30 35 Pb 3.1718 -2.6681 -2.8003 0
M  V30 36 Pd 4.3737 5.1023 2.6575 0
M  V30 37 Pb 3.7187 5.7392 2.2540 0
M  V30 38 Pb 4.9988 5.1068 1.8740 0
M  V30 39 Pb 4.9292 4.3971 3.0956 0
M  V30 40 Pb 3.7678 5.0521 3.4482 0
M  V30 41 Pd -4.3680 -4.5967 -3.5074 0
M  V30 42 Pb -4.9657 -3.7979 -3.6019 0
M  V30 43 Pb -3.7489 -5.3547 -3.3222 0
M  V30 44 Pb -3.6508 -4.2869 -4.1275 0
M  V30 45 Pb -5.0159 -4.9036 -2.8214 0
M  V30 46 Ag 4.0437 3.3904 -4.3292 0
M  V30 47 Fe 3.0041 1.3924 -4.9812 0
M  V30 48 Ag 2.4261 -0.8629 -4.7005 0
M  V30 49 Ag 0.1997 -5.9873 1.9254 0
M  V30 50 Fe -1.8125 -5.1073 2.8296 0
M  V30 51 Ag -3.7944 -4.0625 3.6173 0
M  V30 52 Ag 1.7518 1.3169 6.6247 0
M  V30 53 Fe 2.4420 3.2547 5.4482 0
M  V30 54 Ag 3.3287 4.9442 4.0427 0
M  V30 55 Ag 0.3312 -0.6855 6.6261 0
M  V30 56 Fe -1.7472 -1.2861 5.6443 0
M  V30 57 Ag -3.8267 -1.8854 4.6640 0
M  V30 58 Ag 3.6438 0.1696 6.0175 0
M  V30 59 Fe 4.6151 1.9425 4.7728 0
M  V30 60 Ag 5.2381 3.8253 3.4679 0
M  V30 61 Ag -5.6582 -3.5582 2.2282 0
M  V30 62 Fe -5.7104 -4.3946 0.0160 0
M  V30 63 Ag -5.4669 -5.0351 -2.2477 0
M  V30 64 Ag 0.6345 -6.3343 -0.4424 0
M  V30 65 Fe -1.2724 -6.1833 -1.8443 0
M  V30 66 Ag -3.2114 -5.8487 -3.1679 0
M  V30 67 Ag 4.2836 5.3335 -3.1294 0
M  V30 68 Fe 2.0685 6.1706 -3.0082 0
M  V30 69 Ag -0.2510 6.5733 -2.7245 0
M  V30 70 Ag -0.7851 6.4133 -0.6295 0
M  V30 71 Fe 1.1613 6.3330 0.7282 0
M  V30 72 Ag 3.1325 6.1547 2.0401 0
M  V30 73 Ag -4.5450 1.0797 -2.9343 0
M  V30 74 Fe -3.3422 2.9606 -3.6707 0
M  V30 75 Ag -2.1108 4.9519 -3.4601 0
M  V30 76 Ag 2.3091 -5.1046 2.3458 0
M  V30 77 Fe 2.4248 -3.5637 4.1471 0
M  V30 78 Ag 2.5001 -1.9830 5.9159 0
M  V30 79 Ag 1.5275 -2.8279 -4.1984 0
M  V30 80 Fe -0.7466 -3.4929 -4.3753 0
M  V30 81 Ag -3.0215 -4.1639 -4.5143 0
M  V30 82 Ba 5.8412 4.2279 -1.4840 0
M  V30 83 Ga 5.6314 4.6339 -0.0783 0
M  V30 84 Ba 5.5188 5.0615 1.3320 0
M  V30 85 Ba 5.1979 1.9709 -2.6584 0
M  V30 86 Ga 4.5910 0.6019 -2.8335 0
M  V30 87 Ba 4.1498 -0.8368 -2.9261 0
M  V30 88 Ba -5.8780 -0.6574 -2.1903 0
M  V30 89 Ga -5.6391 -1.9548 -2.8641 0
M  V30 90 Ba -5.4790 -3.2475 -3.5696 0
M  V30 91 Ba -4.3015 2.1436 -0.7205 0
M  V30 92 Ga -3.4632 3.3603 -0.9978 0
M  V30 93 Ba -2.6749 4.6386 -1.0627 0
M  V30 94 Ba -5.6606 0.3957 0.2919 0
M  V30 95 Ga -5.5785 -0.4152 1.5331 0
M  V30 96 Ba -5.5635 -1.1656 2.8146 0
M  V30 97 Ba 2.8734 -5.1035 -0.1597 0
M  V30 98 Ga 3.1130 -4.1293 -1.2515 0
M  V30 99 Ba 3.4715 -3.1916 -2.3423 0
M  V30 END ATOM
M  V30 BEGIN BOND
M  V30 1 1 1 2
M  V30 2 1 1 3
M  V30 3 1 1 4
M  V30 4 1 1 5
M  V30 5 1 6 7
M  V30 6 1 6 8
M  V30 7 1 6 9
M  V30 8 1 6 10
M  V30 9 1 11 12
M  V30 10 1 11 13
M  V30 11 1 11 14
M  V30 12 1 11 15
M  V30 13 1 16 17
M  V30 14 1 16 18
M  V30 15 1 16 19
M  V30 16 1 16 20
M  V30 17 1 21 22
M  V30 18 1 21 23
M  V30 19 1 21 24
M  V30 20 1 21 25
M  V30 21 1 26 27
M  V30 22 1 26 28
M  V30 23 1 26 29
M  V30 24 1 26 30
M  V30 25 1 31 32
M  V30 26 1 31 33
M  V30 27 1 31 34
M  V30 28 1 31 35
M  V30 29 1 36 37
M  V30 30 1 36 38
M  V30 31 1 36 39
M  V30 32 1 36 40
M  V30 33 1 41 42
M  V30 34 1 41 43
M  V30 35 1 41 44
M  V30 36 1 41 45
M  V30 37 1 46 47
M  V30 38 1 47 48
M  V30 39 1 49 50
M  V30 40 1 50 51
M  V30 41 1 52 53
M  V30 42 1 53 54
M  V30 43 1 55 56
M  V30 44 1 56 57
M  V30 45 1 58 59
M  V30 46 1 59 60
M  V30 47 1 61 62
M  V30 48 1 62 63
M  V30 49 1 64 65
M  V30 50 1 65 66
M  V30 51 1 67 68
M  V30 52 1 68 69
M  V30 53 1 70 71
M  V30 54 1 71 72
M  V30 55 1 73 74
M  V30 56 1 74 75
M  V30 57 1 76 77
M  V30 58 1 77 78
M  V30 59 1 79 80
M  V30 60 1 80 81
M  V30 61 1 82 83
M  V30 62 1 83 84
M  V30 63 1 85 86
M  V30 64 1 86 87
M  V30 65 1 88 89
M  V30 66 1 89 90
M  V30 67 1 91 92
M  V30 68 1 92 93
M  V30 69 1 94 95
M  V30 70 1 95 96
M  V30 71 1 97 98
M  V30 72 1 98 99
M  V30 73 1 2 67
M  V30 74 1 3 85
M  V30 75 1 4 46
M  V30 76 1 5 82
M  V30 77 1 7 49
M  V30 78 1 8 64
M  V30 79 1 9 97
M  V30 80 1 10 76
M  V30 81 1 12 73
M  V30 82 1 13 88
M  V30 83 1 14 91
M  V30 84 1 15 94
M  V30 85 1 17 75
M  V30 86 1 18 69
M  V30 87 1 19 93
M  V30 88 1 20 70
M  V30 89 1 22 52
M  V30 90 1 23 55
M  V30 91 1 24 58
M  V30 92 1 25 78
M  V30 93 1 27 57
M  V30 94 1 28 61
M  V30 95 1 29 51
M  V30 96 1 30 96
M  V30 97 1 32 79
M  V30 98 1 33 87
M  V30 99 1 34 48
M  V30 100 1 35 99
M  V30 101 1 37 72
M  V30 102 1 38 84
M  V30 103 1 39 60
M  V30 104 1 40 54
M  V30 105 1 42 90
M  V30 106 1 43 66
M  V30 107 1 44 81
M  V30 108 1 45 63
M  V30 END BOND
M  V30 END CTAB
M  END

$$$$
