
     RDKit          3D

  0  0  0  0  0  0  0  0  0  0999 V3000
M  V30 BEGIN CTAB
M  V30 COUNTS 99 108 0 0 0
M  V30 BEGIN ATOM
M  V30 1 Pd 0.3023 5.3315 6.4029 0
M  V30 2 Pb 0.1707 5.1170 5.4351 0
M  V30 3 Pb 1.2955 5.2446 6.3108 0
M  V30 4 Pb 0.4312 5.5385 7.3693 0
M  V30 5 Pb -0.6511 5.0987 6.6015 0
M  V30 6 Pd 1.1263 -6.3235 -1.4496 0
M  V30 7 Pb 1.9042 -6.2910 -0.8160 0
M  V30 8 Pb 0.3711 -6.2937 -2.1055 0
M  V30 9 Pb 1.7780 -6.1164 -2.1732 0
M  V30 10 Pb 0.4744 -6.4217 -0.6987 0
M  V30 11 Pd 0.8098 1.7972 8.0556 0
M  V30 12 Pb -0.1878 1.8648 8.1076 0
M  V30 13 Pb 0.7497 1.1702 7.2790 0
M  V30 14 Pb 0.8716 2.4281 8.8247 0
M  V30 15 Pb 1.7599 2.0156 7.8271 0
M  V30 16 Pd -5.0169 0.8984 -1.7724 0
M  V30 17 Pb -4.5832 1.6889 -2.2174 0
M  V30 18 Pb -5.4165 0.1113 -1.3040 0
M  V30 19 Pb -4.7248 1.2546 -0.8832 0
M  V30 20 Pb -5.3205 0.4906 -2.6372 0
M  V30 21 Pd -0.7350 1.8485 -4.9372 0
M  V30 22 Pb -0.4668 1.4267 -4.0738 0
M  V30 23 Pb -0.2813 1.0970 -5.4514 0
M  V30 24 Pb -1.3253 2.4899 -4.4458 0
M  V30 25 Pb -1.0007 2.2710 -5.7995 0
M  V30 26 Pd -2.5044 -2.6330 -7.3529 0
M  V30 27 Pb -3.4860 -2.6685 -7.1926 0
M  V30 28 Pb -2.3647 -3.3456 -6.6618 0
M  V30 29 Pb -2.6602 -1.9566 -8.0672 0
M  V30 30 Pb -1.5430 -2.3292 -7.2969 0
M  V30 31 Pd -3.2000 -1.7109 2.3137 0
M  V30 32 Pb -3.3806 -0.7288 2.2473 0
M  V30 33 Pb -4.0309 -1.8807 1.7854 0
M  V30 34 Pb -2.9897 -2.6885 2.3152 0
M  V30 35 Pb -2.3627 -1.5366 2.8322 0
M  V30 36 Pd 2.8410 2.5019 -0.4458 0
M  V30 37 Pb 2.1238 1.9867 -0.9174 0
M  V30 38 Pb 3.5701 2.8760 0.1212 0
M  V30 39 Pb 2.1436 2.9185 0.1375 0
M  V30 40 Pb 3.5591 2.0983 -1.0356 0
M  V30 41 Pd 6.4964 -1.8048 -0.8936 0
M  V30 42 Pb 6.3332 -0.9514 -1.4028 0
M  V30 43 Pb 6.8414 -1.2500 -0.1401 0
M  V30 44 Pb 6.1469 -2.3415 -1.6581 0
M  V30 45 Pb 6.4435 -2.6443 -0.3524 0
M  V30 46 Ag 0.0642 4.9567 4.7102 0
M  V30 47 Fe 0.8537 4.0914 2.6440 0
M  V30 48 Ag 1.6123 3.2335 0.5633 0
M  V30 49 Ag -0.1882 -6.2433 -2.6038 0
M  V30 50 Fe -1.2258 -5.0580 -4.3837 0
M  V30 51 Ag -2.2988 -3.9069 -6.1650 0
M  V30 52 Ag -1.2443 2.4174 -6.4833 0
M  V30 53 Fe -2.1274 0.8662 -8.0134 0
M  V30 54 Ag -2.7207 -1.3569 -8.4986 0
M  V30 55 Ag -0.0246 -6.4129 -0.1399 0
M  V30 56 Fe -1.4497 -5.0008 1.1302 0
M  V30 57 Ag -2.7963 -3.4116 2.2700 0
M  V30 58 Ag 4.1807 2.9339 0.5396 0
M  V30 59 Fe 5.8981 1.3342 0.7895 0
M  V30 60 Ag 6.9982 -0.7067 0.3438 0
M  V30 61 Ag 2.5305 -6.2118 -0.4037 0
M  V30 62 Fe 4.4529 -4.8488 -0.0793 0
M  V30 63 Ag 6.2413 -3.2823 -0.0115 0
M  V30 64 Ag -5.5585 0.1064 -3.2403 0
M  V30 65 Fe -5.0286 -1.2350 -5.1288 0
M  V30 66 Ag -4.1705 -2.5116 -6.9391 0
M  V30 67 Ag 2.3090 -5.8685 -2.6334 0
M  V30 68 Fe 4.1329 -4.3565 -2.6005 0
M  V30 69 Ag 5.8529 -2.7799 -2.1867 0
M  V30 70 Ag 0.7123 0.7002 6.6957 0
M  V30 71 Fe -0.5224 -0.3500 4.9598 0
M  V30 72 Ag -1.7281 -1.4172 3.2139 0
M  V30 73 Ba -0.2743 1.1012 -3.4288 0
M  V30 74 Ga 0.6773 1.3642 -2.3335 0
M  V30 75 Ba 1.5903 1.5320 -1.1880 0
M  V30 76 Ba -1.2803 4.7500 6.8244 0
M  V30 77 Ga -1.2502 3.4120 7.4609 0
M  V30 78 Ba -0.9012 2.1006 8.0567 0
M  V30 79 Ba -4.5131 1.4870 -0.2007 0
M  V30 80 Ga -4.0120 0.7730 0.9908 0
M  V30 81 Ba -3.5152 0.0034 2.1491 0
M  V30 82 Ba -5.6908 -0.4828 -0.9390 0
M  V30 83 Ga -5.1980 -1.2528 0.2168 0
M  V30 84 Ba -4.6500 -1.9800 1.3756 0
M  V30 85 Ba 2.0062 4.9970 6.3372 0
M  V30 86 Ga 2.3551 3.6855 6.9327 0
M  V30 87 Ba 2.3865 2.3528 7.5805 0
M  V30 88 Ba 4.1232 1.8517 -1.4862 0
M  V30 89 Ga 5.1197 0.7509 -1.5952 0
M  V30 90 Ba 6.1426 -0.3167 -1.7709 0
M  V30 91 Ba 0.5360 5.5805 8.1052 0
M  V30 92 Ga 0.7393 4.3699 8.8970 0
M  V30 93 Ba 0.9022 2.9817 9.3215 0
M  V30 94 Ba -4.2396 2.3034 -2.4919 0
M  V30 95 Ga -3.0356 2.6125 -3.2955 0
M  V30 96 Ba -1.8333 2.9231 -4.1010 0
M  V30 97 Ba 0.0322 0.5134 -5.8396 0
M  V30 98 Ga -0.4215 -0.7422 -6.5156 0
M  V30 99 Ba -0.8621 -2.0005 -7.1952 0
M  V30 END ATOM
M  V30 BEGIN BOND
M  V30 1 1 1 2
M  V30 2 1 1 3
M  V30 3 1 1 4
M  V30 4 1 1 5
M  V30 5 1 6 7
M  V30 6 1 6 8
M  V30 7 1 6 9
M  V30 8 1 6 10
M  V30 9 1 11 12
M  V30 10 1 11 13
M  V30 11 1 11 14
M  V30 12 1 11 15
M  V30 13 1 16 17
M  V30 14 1 16 18
M  V30 15 1 16 19
M  V30 16 1 16 20
M  V30 17 1 21 22
M  V30 18 1 21 23
M  V30 19 1 21 24
M  V30 20 1 21 25
M  V30 21 1 26 27
M  V30 22 1 26 28
M  V30 23 1 26 29
M  V30 24 1 26 30
M  V30 25 1 31 32
M  V30 26 1 31 33
M  V30 27 1 31 34
M  V30 28 1 31 35
M  V30 29 1 36 37
M  V30 30 1 36 38
M  V30 31 1 36 39
M  V30 32 1 36 40
M  V30 33 1 41 42
M  V30 34 1 41 43
M  V30 35 1 41 44
M  V30 36 1 41 45
M  V30 37 1 46 47
M  V30 38 1 47 48
M  V30 39 1 49 50
M  V30 40 1 50 51
M  V30 41 1 52 53
M  V30 42 1 53 54
M  V30 43 1 55 56
M  V30 44 1 56 57
M  V30 45 1 58 59
M  V30 46 1 59 60
M  V30 47 1 61 62
M  V30 48 1 62 63
M  V30 49 1 64 65
M  V30 50 1 65 66
M  V30 51 1 67 68
M  V30 52 1 68 69
M  V30 53 1 70 71
M  V30 54 1 71 72
M  V30 55 1 73 74
M  V30 56 1 74 75
M  V30 57 1 76 77
M  V30 58 1 77 78
M  V30 59 1 79 80
M  V30 60 1 80 81
M  V30 61 1 82 83
M  V30 62 1 83 84
M  V30 63 1 85 86
M  V30 64 1 86 87
M  V30 65 1 88 89
M  V30 66 1 89 90
M  V30 67 1 91 92
M  V30 68 1 92 93
M  V30 69 1 94 95
M  V30 70 1 95 96
M  V30 71 1 97 98
M  V30 72 1 98 99
M  V30 73 1 2 46
M  V30 74 1 3 85
M  V30 75 1 4 91
M  V30 76 1 5 76
M  V30 77 1 7 61
M  V30 78 1 8 49
M  V30 79 1 9 67
M  V30 80 1 10 55
M  V30 81 1 12 78
M  V30 82 1 13 70
M  V30 83 1 14 93
M  V30 84 1 15 87
M  V30 85 1 17 94
M  V30 86 1 18 82
M  V30 87 1 19 79
M  V30 88 1 20 64
M  V30 89 1 22 73
M  V30 90 1 23 97
M  V30 91 1 24 96
M  V30 92 1 25 52
M  V30 93 1 27 66
M  V30 94 1 28 51
M  V30 95 1 29 54
M  V30 96 1 30 99
M  V30 97 1 32 81
M  V30 98 1 33 84
M  V30 99 1 34 57
M  V30 100 1 35 72
M  V30 101 1 37 75
M  V30 102 1 38 58
M  V30 103 1 39 48
M  V30 104 1 40 88
M  V30 105 1 42 90
M  V30 106 1 43 60
M  V30 107 1 44 69
M  V30 108 1 45 63
M  V30 END BOND
M  V30 END CTAB
M  END

$$$$
