
     RDKit          3D

  0  0  0  0  0  0  0  0  0  0999 V3000
M  V30 BEGIN CTAB
M  V30 COUNTS 99 108 0 0 0
M  V30 BEGIN ATOM
M  V30 1 Pd -1.0159 3.6028 0.4469 0
M  V30 2 Pb -1.4839 3.3588 1.3001 0
M  V30 3 Pb -0.5337 3.9113 -0.3768 0
M  V30 4 Pb -0.1348 3.6701 0.9135 0
M  V30 5 Pb -1.8939 3.4988 -0.0227 0
M  V30 6 Pd 0.5386 1.3911 -7.9712 0
M  V30 7 Pb 0.8719 1.0650 -7.0884 0
M  V30 8 Pb 1.2913 2.0671 -8.0118 0
M  V30 9 Pb -0.2775 0.8219 -7.8665 0
M  V30 10 Pb 0.2036 1.7403 -8.8443 0
M  V30 11 Pd -1.7951 -5.2905 5.2225 0
M  V30 12 Pb -1.4363 -4.9686 6.1019 0
M  V30 13 Pb -2.1360 -5.5479 4.3240 0
M  V30 14 Pb -0.9845 -5.8391 5.0056 0
M  V30 15 Pb -2.6121 -4.7399 5.3834 0
M  V30 16 Pd 3.0908 -4.5090 2.8640 0
M  V30 17 Pb 2.5104 -5.3049 3.0431 0
M  V30 18 Pb 3.6818 -3.6832 2.7561 0
M  V30 19 Pb 2.8718 -4.4963 1.8824 0
M  V30 20 Pb 3.3828 -4.5867 3.8088 0
M  V30 21 Pd -0.4286 -3.0819 -1.6851 0
M  V30 22 Pb 0.0845 -2.3959 -2.1984 0
M  V30 23 Pb -0.9430 -3.7665 -1.1759 0
M  V30 24 Pb 0.4354 -3.4863 -1.3721 0
M  V30 25 Pb -1.3046 -2.7114 -2.0017 0
M  V30 26 Pd 4.5851 0.7317 5.0498 0
M  V30 27 Pb 4.8431 0.0795 4.3132 0
M  V30 28 Pb 4.1489 1.2585 5.7732 0
M  V30 29 Pb 4.2779 1.4116 4.3857 0
M  V30 30 Pb 4.8653 0.0728 5.7370 0
M  V30 31 Pd -2.0911 -0.4899 6.9933 0
M  V30 32 Pb -2.4252 0.2657 6.4285 0
M  V30 33 Pb -1.3387 0.0921 7.3007 0
M  V30 34 Pb -2.8447 -1.0685 6.6889 0
M  V30 35 Pb -1.7102 -1.2830 7.4759 0
M  V30 36 Pd -3.3931 1.3064 -4.1393 0
M  V30 37 Pb -3.4435 0.3900 -3.7392 0
M  V30 38 Pb -3.3925 2.2363 -4.5079 0
M  V30 39 Pb -3.1621 0.8860 -5.0232 0
M  V30 40 Pb -3.6402 1.7286 -3.2667 0
M  V30 41 Pd 0.6839 6.5018 -6.7756 0
M  V30 42 Pb 1.4766 5.9881 -7.1212 0
M  V30 43 Pb 0.9300 6.2409 -5.8410 0
M  V30 44 Pb -0.2263 6.7372 -6.4554 0
M  V30 45 Pb 0.4012 6.6773 -7.7167 0
M  V30 46 Ag 1.1121 0.8278 -6.4204 0
M  V30 47 Fe 0.7991 -0.5313 -4.5001 0
M  V30 48 Ag 0.4842 -1.8910 -2.5804 0
M  V30 49 Ag -1.8622 3.2143 1.9353 0
M  V30 50 Fe -2.2462 2.0132 3.9508 0
M  V30 51 Ag -2.6403 0.8191 5.9686 0
M  V30 52 Ag -0.0089 2.1646 -9.4164 0
M  V30 53 Fe -0.1105 4.5166 -9.4995 0
M  V30 54 Ag 0.1809 6.5895 -8.4201 0
M  V30 55 Ag 3.6527 -4.5519 4.4957 0
M  V30 56 Fe 4.4766 -2.7751 5.7959 0
M  V30 57 Ag 4.9835 -0.5113 6.1720 0
M  V30 58 Ag 0.5499 3.7135 1.2152 0
M  V30 59 Fe 2.2836 2.8234 2.5711 0
M  V30 60 Ag 4.0249 1.9446 3.9245 0
M  V30 61 Ag -3.4118 2.9627 -4.6971 0
M  V30 62 Fe -2.3065 4.9256 -5.4417 0
M  V30 63 Ag -0.9331 6.6919 -6.2286 0
M  V30 64 Ag -0.0932 4.1809 -0.9255 0
M  V30 65 Fe 0.4370 5.0910 -3.0572 0
M  V30 66 Ag 1.1031 6.0016 -5.1503 0
M  V30 67 Ag 3.6950 1.5397 6.2930 0
M  V30 68 Fe 1.4714 1.1682 7.0285 0
M  V30 69 Ag -0.7663 0.5350 7.4952 0
M  V30 70 Ag -2.3255 -5.6993 3.6200 0
M  V30 71 Fe -1.9082 -5.0591 1.3776 0
M  V30 72 Ag -1.3405 -4.2569 -0.7781 0
M  V30 73 Ba -1.9941 -2.4981 -2.2141 0
M  V30 74 Ga -2.7043 -1.3626 -2.8374 0
M  V30 75 Ba -3.5258 -0.2977 -3.4485 0
M  V30 76 Ba 2.7935 -4.5187 1.1312 0
M  V30 77 Ga 1.8861 -4.1312 0.0273 0
M  V30 78 Ba 1.0881 -3.8093 -1.1779 0
M  V30 79 Ba 4.1567 -3.0831 2.6643 0
M  V30 80 Ga 4.5316 -1.7591 3.2585 0
M  V30 81 Ba 4.9988 -0.4238 3.7545 0
M  V30 82 Ba -3.2096 -4.3038 5.4957 0
M  V30 83 Ga -3.3421 -2.9197 5.9783 0
M  V30 84 Ba -3.3879 -1.5330 6.4693 0
M  V30 85 Ba 1.8354 2.6013 -8.0326 0
M  V30 86 Ga 1.9299 4.0534 -7.7106 0
M  V30 87 Ba 1.9997 5.5052 -7.3818 0
M  V30 88 Ba -1.2043 -4.6709 6.7537 0
M  V30 89 Ga -1.2963 -3.2984 7.3005 0
M  V30 90 Ba -1.4211 -1.9058 7.7867 0
M  V30 91 Ba -0.4237 -6.2748 4.7546 0
M  V30 92 Ga 0.8405 -6.0761 4.0136 0
M  V30 93 Ba 2.1081 -5.8968 3.2735 0
M  V30 94 Ba -0.9153 0.4411 -7.7563 0
M  V30 95 Ga -1.9571 0.4908 -6.7065 0
M  V30 96 Ba -3.0120 0.5239 -5.6694 0
M  V30 97 Ba -2.5772 3.3918 -0.3163 0
M  V30 98 Ga -3.1799 2.7329 -1.4918 0
M  V30 99 Ba -3.8458 2.0930 -2.6436 0
M  V30 END ATOM
M  V30 BEGIN BOND
M  V30 1 1 1 2
M  V30 2 1 1 3
M  V30 3 1 1 4
M  V30 4 1 1 5
M  V30 5 1 6 7
M  V30 6 1 6 8
M  V30 7 1 6 9
M  V30 8 1 6 10
M  V30 9 1 11 12
M  V30 10 1 11 13
M  V30 11 1 11 14
M  V30 12 1 11 15
M  V30 13 1 16 17
M  V30 14 1 16 18
M  V30 15 1 16 19
M  V30 16 1 16 20
M  V30 17 1 21 22
M  V30 18 1 21 23
M  V30 19 1 21 24
M  V30 20 1 21 25
M  V30 21 1 26 27
M  V30 22 1 26 28
M  V30 23 1 26 29
M  V30 24 1 26 30
M  V30 25 1 31 32
M  V30 26 1 31 33
M  V30 27 1 31 34
M  V30 28 1 31 35
M  V30 29 1 36 37
M  V30 30 1 36 38
M  V30 31 1 36 39
M  V30 32 1 36 40
M  V30 33 1 41 42
M  V30 34 1 41 43
M  V30 35 1 41 44
M  V30 36 1 41 45
M  V30 37 1 46 47
M  V30 38 1 47 48
M  V30 39 1 49 50
M  V30 40 1 50 51
M  V30 41 1 52 53
M  V30 42 1 53 54
M  V30 43 1 55 56
M  V30 44 1 56 57
M  V30 45 1 58 59
M  V30 46 1 59 60
M  V30 47 1 61 62
M  V30 48 1 62 63
M  V30 49 1 64 65
M  V30 50 1 65 66
M  V30 51 1 67 68
M  V30 52 1 68 69
M  V30 53 1 70 71
M  V30 54 1 71 72
M  V30 55 1 73 74
M  V30 56 1 74 75
M  V30 57 1 76 77
M  V30 58 1 77 78
M  V30 59 1 79 80
M  V30 60 1 80 81
M  V30 61 1 82 83
M  V30 62 1 83 84
M  V30 63 1 85 86
M  V30 64 1 86 87
M  V30 65 1 88 89
M  V30 66 1 89 90
M  V30 67 1 91 92
M  V30 68 1 92 93
M  V30 69 1 94 95
M  V30 70 1 95 96
M  V30 71 1 97 98
M  V30 72 1 98 99
M  V30 73 1 2 49
M  V30 74 1 3 64
M  V30 75 1 4 58
M  V30 76 1 5 97
M  V30 77 1 7 46
M  V30 78 1 8 85
M  V30 79 1 9 94
M  V30 80 1 10 52
M  V30 81 1 12 88
M  V30 82 1 13 70
M  V30 83 1 14 91
M  V30 84 1 15 82
M  V30 85 1 17 93
M  V30 86 1 18 79
M  V30 87 1 19 76
M  V30 88 1 20 55
M  V30 89 1 22 48
M  V30 90 1 23 72
M  V30 91 1 24 78
M  V30 92 1 25 73
M  V30 93 1 27 81
M  V30 94 1 28 67
M  V30 95 1 29 60
M  V30 96 1 30 57
M  V30 97 1 32 51
M  V30 98 1 33 69
M  V30 99 1 34 84
M  V30 100 1 35 90
M  V30 101 1 37 75
M  V30 102 1 38 61
M  V30 103 1 39 96
M  V30 104 1 40 99
M  V30 105 1 42 87
M  V30 106 1 43 66
M  V30 107 1 44 63
M  V30 108 1 45 54
M  V30 END BOND
M  V30 END CTAB
M  END

$$$$
