
     RDKit          3D

  0  0  0  0  0  0  0  0  0  0999 V3000
M  V30 BEGIN CTAB
M  V30 COUNTS 99 108 0 0 0
M  V30 BEGIN ATOM
M  V30 1 Pd 3.2017 -4.0358 -1.5970 0
M  V30 2 Pb 3.8409 -3.2682 -1.6169 0
M  V30 3 Pb 3.1087 -3.9278 -2.5879 0
M  V30 4 Pb 3.3737 -4.1278 -0.6163 0
M  V30 5 Pb 2.5627 -4.8103 -1.5512 0
M  V30 6 Pd -4.9852 0.3820 -5.2362 0
M  V30 7 Pb -5.3267 0.7994 -4.3923 0
M  V30 8 Pb -4.4805 1.2029 -5.4923 0
M  V30 9 Pb -5.3983 -0.4853 -4.9711 0
M  V30 10 Pb -4.6580 -0.0453 -6.0931 0
M  V30 11 Pd -0.2784 6.8204 2.3829 0
M  V30 12 Pb 0.1653 6.6380 1.5049 0
M  V30 13 Pb -1.1891 6.6451 2.0091 0
M  V30 14 Pb -0.6567 6.8505 3.3039 0
M  V30 15 Pb 0.6358 6.8894 2.7759 0
M  V30 16 Pd -0.2020 1.4596 7.1091 0
M  V30 17 Pb -0.4626 2.4241 7.1108 0
M  V30 18 Pb 0.0505 0.4949 7.0929 0
M  V30 19 Pb -1.1053 1.2321 6.7483 0
M  V30 20 Pb 0.7366 1.6842 7.3783 0
M  V30 21 Pd -4.6978 0.9717 0.7304 0
M  V30 22 Pb -5.0645 1.0751 -0.1993 0
M  V30 23 Pb -4.6961 1.9710 0.7873 0
M  V30 24 Pb -4.4473 0.9027 1.6978 0
M  V30 25 Pb -4.6186 -0.0281 0.6927 0
M  V30 26 Pd 4.1842 -0.7244 5.3857 0
M  V30 27 Pb 3.3672 -1.1396 5.7811 0
M  V30 28 Pb 5.0134 -0.3166 4.9956 0
M  V30 29 Pb 4.2538 -1.5102 4.7707 0
M  V30 30 Pb 4.0711 0.0501 6.0125 0
M  V30 31 Pd 5.4678 2.7466 1.3514 0
M  V30 32 Pb 5.6126 2.0181 0.6832 0
M  V30 33 Pb 6.0013 2.2362 2.0275 0
M  V30 34 Pb 5.3041 3.4855 2.0013 0
M  V30 35 Pb 4.8813 3.2522 0.7145 0
M  V30 36 Pd -2.2692 -5.7052 -2.2541 0
M  V30 37 Pb -2.5574 -5.3157 -1.3798 0
M  V30 38 Pb -2.0167 -6.0016 -3.1722 0
M  V30 39 Pb -3.1430 -5.3851 -2.6141 0
M  V30 40 Pb -1.3782 -6.0126 -1.9091 0
M  V30 41 Pd -0.4381 -1.8614 -7.9678 0
M  V30 42 Pb -0.2681 -0.8789 -7.9909 0
M  V30 43 Pb 0.4912 -2.0767 -7.6767 0
M  V30 44 Pb -0.6334 -2.8345 -7.8680 0
M  V30 45 Pb -1.4120 -1.6617 -8.1350 0
M  V30 46 Ag 4.3188 -2.6915 -1.6269 0
M  V30 47 Fe 5.0277 -0.6104 -0.7313 0
M  V30 48 Ag 5.7146 1.4696 0.1835 0
M  V30 49 Ag -4.4879 -0.7679 0.7601 0
M  V30 50 Fe -3.6722 -2.8680 -0.0014 0
M  V30 51 Ag -2.8571 -4.9574 -0.7923 0
M  V30 52 Ag -1.7632 1.0701 6.4288 0
M  V30 53 Fe -3.0325 0.9571 4.4237 0
M  V30 54 Ag -4.3288 0.8325 2.4368 0
M  V30 55 Ag 1.3318 6.8431 3.0433 0
M  V30 56 Fe 3.3107 5.5499 2.8582 0
M  V30 57 Ag 5.1108 4.0677 2.4279 0
M  V30 58 Ag -3.9711 1.6755 -5.7575 0
M  V30 59 Fe -1.9636 1.2145 -6.9141 0
M  V30 60 Ag -0.3098 -0.1391 -7.9213 0
M  V30 61 Ag 0.5840 6.4144 0.9230 0
M  V30 62 Fe 2.4860 5.0673 0.4541 0
M  V30 63 Ag 4.4001 3.6645 0.3081 0
M  V30 64 Ag -0.8706 6.7485 4.0113 0
M  V30 65 Fe -0.8471 5.0409 5.6568 0
M  V30 66 Ag -0.6768 3.1403 7.0656 0
M  V30 67 Ag -5.6206 -1.1664 -4.7622 0
M  V30 68 Fe -4.8236 -3.1929 -3.8240 0
M  V30 69 Ag -3.7833 -5.1004 -2.8747 0
M  V30 70 Ag 3.5535 -4.1824 0.1098 0
M  V30 71 Fe 3.9042 -3.1465 2.2183 0
M  V30 72 Ag 4.2574 -2.1173 4.3297 0
M  V30 73 Ag -1.8545 -6.1273 -3.8903 0
M  V30 74 Fe -1.2976 -4.9879 -5.8936 0
M  V30 75 Ag -0.7556 -3.5525 -7.7012 0
M  V30 76 Ag 3.1237 -3.7865 -3.3261 0
M  V30 77 Fe 2.1579 -3.0504 -5.3673 0
M  V30 78 Ag 1.1359 -2.3128 -7.3804 0
M  V30 79 Ag -1.8702 6.4486 1.7640 0
M  V30 80 Fe -3.3175 4.6317 1.2665 0
M  V30 81 Ag -4.6521 2.7203 0.8093 0
M  V30 82 Ba -5.6308 1.1049 -3.7770 0
M  V30 83 Ga -5.4460 1.1255 -2.3096 0
M  V30 84 Ba -5.4204 1.2646 -0.8377 0
M  V30 85 Ba 0.2631 -0.2210 7.0672 0
M  V30 86 Ga 1.4952 -0.8625 6.5822 0
M  V30 87 Ba 2.7516 -1.4413 6.0806 0
M  V30 88 Ba -4.4537 -0.3547 -6.7581 0
M  V30 89 Ga -3.2702 -0.9245 -7.4565 0
M  V30 90 Ba -2.1480 -1.5106 -8.2381 0
M  V30 91 Ba 1.4587 1.8293 7.5303 0
M  V30 92 Ga 2.7189 1.2394 7.0296 0
M  V30 93 Ba 3.9482 0.6136 6.4966 0
M  V30 94 Ba 2.1134 -5.4096 -1.4553 0
M  V30 95 Ga 0.6901 -5.7950 -1.5893 0
M  V30 96 Ba -0.7070 -6.2753 -1.6889 0
M  V30 97 Ba 5.6458 -0.0206 4.7136 0
M  V30 98 Ga 6.0060 0.9136 3.6266 0
M  V30 99 Ba 6.3827 1.8460 2.5437 0
M  V30 END ATOM
M  V30 BEGIN BOND
M  V30 1 1 1 2
M  V30 2 1 1 3
M  V30 3 1 1 4
M  V30 4 1 1 5
M  V30 5 1 6 7
M  V30 6 1 6 8
M  V30 7 1 6 9
M  V30 8 1 6 10
M  V30 9 1 11 12
M  V30 10 1 11 13
M  V30 11 1 11 14
M  V30 12 1 11 15
M  V30 13 1 16 17
M  V30 14 1 16 18
M  V30 15 1 16 19
M  V30 16 1 16 20
M  V30 17 1 21 22
M  V30 18 1 21 23
M  V30 19 1 21 24
M  V30 20 1 21 25
M  V30 21 1 26 27
M  V30 22 1 26 28
M  V30 23 1 26 29
M  V30 24 1 26 30
M  V30 25 1 31 32
M  V30 26 1 31 33
M  V30 27 1 31 34
M  V30 28 1 31 35
M  V30 29 1 36 37
M  V30 30 1 36 38
M  V30 31 1 36 39
M  V30 32 1 36 40
M  V30 33 1 41 42
M  V30 34 1 41 43
M  V30 35 1 41 44
M  V30 36 1 41 45
M  V30 37 1 46 47
M  V30 38 1 47 48
M  V30 39 1 49 50
M  V30 40 1 50 51
M  V30 41 1 52 53
M  V30 42 1 53 54
M  V30 43 1 55 56
M  V30 44 1 56 57
M  V30 45 1 58 59
M  V30 46 1 59 60
M  V30 47 1 61 62
M  V30 48 1 62 63
M  V30 49 1 64 65
M  V30 50 1 65 66
M  V30 51 1 67 68
M  V30 52 1 68 69
M  V30 53 1 70 71
M  V30 54 1 71 72
M  V30 55 1 73 74
M  V30 56 1 74 75
M  V30 57 1 76 77
M  V30 58 1 77 78
M  V30 59 1 79 80
M  V30 60 1 80 81
M  V30 61 1 82 83
M  V30 62 1 83 84
M  V30 63 1 85 86
M  V30 64 1 86 87
M  V30 65 1 88 89
M  V30 66 1 89 90
M  V30 67 1 91 92
M  V30 68 1 92 93
M  V30 69 1 94 95
M  V30 70 1 95 96
M  V30 71 1 97 98
M  V30 72 1 98 99
M  V30 73 1 2 46
M  V30 74 1 3 76
M  V30 75 1 4 70
M  V30 76 1 5 94
M  V30 77 1 7 82
M  V30 78 1 8 58
M  V30 79 1 9 67
M  V30 80 1 10 88
M  V30 81 1 12 61
M  V30 82 1 13 79
M  V30 83 1 14 64
M  V30 84 1 15 55
M  V30 85 1 17 66
M  V30 86 1 18 85
M  V30 87 1 19 52
M  V30 88 1 20 91
M  V30 89 1 22 84
M  V30 90 1 23 81
M  V30 91 1 24 54
M  V30 92 1 25 49
M  V30 93 1 27 87
M  V30 94 1 28 97
M  V30 95 1 29 72
M  V30 96 1 30 93
M  V30 97 1 32 48
M  V30 98 1 33 99
M  V30 99 1 34 57
M  V30 100 1 35 63
M  V30 101 1 37 51
M  V30 102 1 38 73
M  V30 103 1 39 69
M  V30 104 1 40 96
M  V30 105 1 42 60
M  V30 106 1 43 78
M  V30 107 1 44 75
M  V30 108 1 45 90
M  V30 END BOND
M  V30 END CTAB
M  END

$$$$
