
     RDKit          3D

  0  0  0  0  0  0  0  0  0  0999 V3000
M  V30 BEGIN CTAB
M  V30 COUNTS 99 108 0 0 0
M  V30 BEGIN ATOM
M  V30 1 Pd -4.5737 -1.7465 -0.3854 0
M  V30 2 Pb -4.2751 -2.4698 -1.0118 0
M  V30 3 Pb -5.4135 -1.6276 -0.9175 0
M  V30 4 Pb -4.8652 -0.9863 0.1957 0
M  V30 5 Pb -3.7413 -1.8656 0.1623 0
M  V30 6 Pd -6.5982 2.5684 -2.0717 0
M  V30 7 Pb -6.7147 2.7768 -3.0441 0
M  V30 8 Pb -6.4313 2.3379 -1.1123 0
M  V30 9 Pb -7.0380 1.6793 -2.1854 0
M  V30 10 Pb -6.0689 3.4103 -1.9837 0
M  V30 11 Pd 3.3341 2.1484 -1.5573 0
M  V30 12 Pb 3.5050 1.4062 -2.1999 0
M  V30 13 Pb 3.1010 2.7915 -0.8245 0
M  V30 14 Pb 4.2634 2.0406 -1.2004 0
M  V30 15 Pb 2.4091 2.2287 -1.9282 0
M  V30 16 Pd 7.3152 -0.9588 3.8870 0
M  V30 17 Pb 7.3718 -0.1000 4.3893 0
M  V30 18 Pb 7.2070 -1.8157 3.3801 0
M  V30 19 Pb 6.9012 -1.3815 4.7066 0
M  V30 20 Pb 7.5654 -0.4806 3.0473 0
M  V30 21 Pd -0.9806 -1.1501 -3.4148 0
M  V30 22 Pb -0.8949 -1.3932 -2.4495 0
M  V30 23 Pb -1.1271 -0.9227 -4.3774 0
M  V30 24 Pb -0.6164 -0.2261 -3.2701 0
M  V30 25 Pb -1.4493 -2.0250 -3.5116 0
M  V30 26 Pd -2.8169 3.1410 -4.9509 0
M  V30 27 Pb -3.7202 3.2736 -5.3558 0
M  V30 28 Pb -1.9715 2.9171 -4.4686 0
M  V30 29 Pb -3.0520 3.8326 -4.2677 0
M  V30 30 Pb -2.5955 2.4150 -5.5996 0
M  V30 31 Pd 2.1145 -4.3495 0.1211 0
M  V30 32 Pb 1.2354 -3.8868 0.0041 0
M  V30 33 Pb 1.8332 -4.5764 1.0509 0
M  V30 34 Pb 2.4158 -4.0324 -0.7753 0
M  V30 35 Pb 3.0433 -4.6542 0.3260 0
M  V30 36 Pd -0.0310 1.0322 1.8343 0
M  V30 37 Pb -0.2058 1.0291 2.8235 0
M  V30 38 Pb 0.4783 1.8940 1.8812 0
M  V30 39 Pb -0.4989 0.1469 1.7568 0
M  V30 40 Pb 0.1263 1.0767 0.8483 0
M  V30 41 Pd 2.3144 -0.7405 6.4785 0
M  V30 42 Pb 3.2194 -1.1834 6.5876 0
M  V30 43 Pb 2.7209 0.1181 6.7789 0
M  V30 44 Pb 1.9445 -1.6039 6.1399 0
M  V30 45 Pb 1.4490 -0.2781 6.2802 0
M  V30 46 Ag 4.9604 1.9238 -0.9455 0
M  V30 47 Fe 6.3812 0.9500 0.6898 0
M  V30 48 Ag 7.6413 -0.0862 2.4156 0
M  V30 49 Ag 1.6268 -4.6574 1.7647 0
M  V30 50 Fe 1.6085 -3.5536 3.8644 0
M  V30 51 Ag 1.7112 -2.2505 5.8440 0
M  V30 52 Ag 3.5699 0.7695 -2.5825 0
M  V30 53 Fe 3.1821 -1.5392 -2.2171 0
M  V30 54 Ag 2.6571 -3.7003 -1.3992 0
M  V30 55 Ag -1.3766 2.6715 -4.0856 0
M  V30 56 Fe -0.5249 1.9284 -1.9973 0
M  V30 57 Ag 0.2592 1.1912 0.1193 0
M  V30 58 Ag 7.2491 0.4986 4.8109 0
M  V30 59 Fe 5.3448 1.0737 6.0761 0
M  V30 60 Ag 3.1697 0.6959 6.9028 0
M  V30 61 Ag 7.0802 -2.4498 2.9973 0
M  V30 62 Fe 5.5041 -3.7115 1.7456 0
M  V30 63 Ag 3.7533 -4.7668 0.5361 0
M  V30 64 Ba -0.3716 1.0313 3.5595 0
M  V30 65 Ga 0.2311 0.5508 4.8218 0
M  V30 66 Ba 0.8145 0.0796 6.0966 0
M  V30 67 Ba -5.6137 4.0042 -1.9799 0
M  V30 68 Ga -4.4307 4.2359 -2.8270 0
M  V30 69 Ba -3.2808 4.3191 -3.7447 0
M  V30 70 Ba -6.0506 -1.5132 -1.2988 0
M  V30 71 Ga -6.7129 -0.2920 -1.7941 0
M  V30 72 Ba -7.2993 0.9811 -2.2526 0
M  V30 73 Ba 6.5559 -1.6746 5.3187 0
M  V30 74 Ga 5.2165 -1.5756 5.9673 0
M  V30 75 Ba 3.8997 -1.5210 6.6654 0
M  V30 76 Ba -5.1012 -0.3894 0.5840 0
M  V30 77 Ga -5.6977 0.8831 0.1339 0
M  V30 78 Ba -6.2864 2.1232 -0.4077 0
M  V30 79 Ba -1.2650 -0.7141 -5.0843 0
M  V30 80 Ga -1.8269 0.5378 -5.6208 0
M  V30 81 Ba -2.3964 1.8343 -6.0275 0
M  V30 82 Ba -3.1264 -1.9839 0.5813 0
M  V30 83 Ga -1.9866 -1.2153 1.1289 0
M  V30 84 Ba -0.8113 -0.5385 1.7209 0
M  V30 85 Ba -6.7393 2.9452 -3.7757 0
M  V30 86 Ga -5.6383 3.1581 -4.7341 0
M  V30 87 Ba -4.4353 3.3397 -5.5680 0
M  V30 88 Ba -0.9077 -1.6394 -1.7415 0
M  V30 89 Ga -0.1221 -2.5616 -0.8990 0
M  V30 90 Ba 0.6097 -3.4715 0.0032 0
M  V30 91 Ba 1.7212 2.2850 -2.2213 0
M  V30 92 Ga 0.6778 1.3499 -2.6911 0
M  V30 93 Ba -0.4253 0.4976 -3.1810 0
M  V30 94 Ba -4.0346 -2.9755 -1.5141 0
M  V30 95 Ga -2.9629 -2.8926 -2.5240 0
M  V30 96 Ba -1.8604 -2.6480 -3.4723 0
M  V30 97 Ba 2.8836 3.2103 -0.2379 0
M  V30 98 Ga 1.8973 2.9213 0.8263 0
M  V30 99 Ba 0.8903 2.5221 1.8340 0
M  V30 END ATOM
M  V30 BEGIN BOND
M  V30 1 1 1 2
M  V30 2 1 1 3
M  V30 3 1 1 4
M  V30 4 1 1 5
M  V30 5 1 6 7
M  V30 6 1 6 8
M  V30 7 1 6 9
M  V30 8 1 6 10
M  V30 9 1 11 12
M  V30 10 1 11 13
M  V30 11 1 11 14
M  V30 12 1 11 15
M  V30 13 1 16 17
M  V30 14 1 16 18
M  V30 15 1 16 19
M  V30 16 1 16 20
M  V30 17 1 21 22
M  V30 18 1 21 23
M  V30 19 1 21 24
M  V30 20 1 21 25
M  V30 21 1 26 27
M  V30 22 1 26 28
M  V30 23 1 26 29
M  V30 24 1 26 30
M  V30 25 1 31 32
M  V30 26 1 31 33
M  V30 27 1 31 34
M  V30 28 1 31 35
M  V30 29 1 36 37
M  V30 30 1 36 38
M  V30 31 1 36 39
M  V30 32 1 36 40
M  V30 33 1 41 42
M  V30 34 1 41 43
M  V30 35 1 41 44
M  V30 36 1 41 45
M  V30 37 1 46 47
M  V30 38 1 47 48
M  V30 39 1 49 50
M  V30 40 1 50 51
M  V30 41 1 52 53
M  V30 42 1 53 54
M  V30 43 1 55 56
M  V30 44 1 56 57
M  V30 45 1 58 59
M  V30 46 1 59 60
M  V30 47 1 61 62
M  V30 48 1 62 63
M  V30 49 1 64 65
M  V30 50 1 65 66
M  V30 51 1 67 68
M  V30 52 1 68 69
M  V30 53 1 70 71
M  V30 54 1 71 72
M  V30 55 1 73 74
M  V30 56 1 74 75
M  V30 57 1 76 77
M  V30 58 1 77 78
M  V30 59 1 79 80
M  V30 60 1 80 81
M  V30 61 1 82 83
M  V30 62 1 83 84
M  V30 63 1 85 86
M  V30 64 1 86 87
M  V30 65 1 88 89
M  V30 66 1 89 90
M  V30 67 1 91 92
M  V30 68 1 92 93
M  V30 69 1 94 95
M  V30 70 1 95 96
M  V30 71 1 97 98
M  V30 72 1 98 99
M  V30 73 1 2 94
M  V30 74 1 3 70
M  V30 75 1 4 76
M  V30 76 1 5 82
M  V30 77 1 7 85
M  V30 78 1 8 78
M  V30 79 1 9 72
M  V30 80 1 10 67
M  V30 81 1 12 52
M  V30 82 1 13 97
M  V30 83 1 14 46
M  V30 84 1 15 91
M  V30 85 1 17 58
M  V30 86 1 18 61
M  V30 87 1 19 73
M  V30 88 1 20 48
M  V30 89 1 22 88
M  V30 90 1 23 79
M  V30 91 1 24 93
M  V30 92 1 25 96
M  V30 93 1 27 87
M  V30 94 1 28 55
M  V30 95 1 29 69
M  V30 96 1 30 81
M  V30 97 1 32 90
M  V30 98 1 33 49
M  V30 99 1 34 54
M  V30 100 1 35 63
M  V30 101 1 37 64
M  V30 102 1 38 99
M  V30 103 1 39 84
M  V30 104 1 40 57
M  V30 105 1 42 75
M  V30 106 1 43 60
M  V30 107 1 44 51
M  V30 108 1 45 66
M  V30 END BOND
M  V30 END CTAB
M  END

$$$$
