
     RDKit          3D

  0  0  0  0  0  0  0  0  0  0999 V3000
M  V30 BEGIN CTAB
M  V30 COUNTS 99 108 0 0 0
M  V30 BEGIN ATOM
M  V30 1 Pd 2.0829 -4.0860 2.3473 0
M  V30 2 Pb 2.2246 -3.3036 2.9533 0
M  V30 3 Pb 1.6778 -4.5961 3.1162 0
M  V30 4 Pb 2.7052 -3.6893 1.6689 0
M  V30 5 Pb 1.8560 -4.7817 1.6598 0
M  V30 6 Pd -4.8388 -1.6456 2.7210 0
M  V30 7 Pb -4.6518 -0.8116 2.2080 0
M  V30 8 Pb -5.0092 -2.4688 3.2859 0
M  V30 9 Pb -5.0543 -2.1287 1.8662 0
M  V30 10 Pb -4.5852 -1.1686 3.5584 0
M  V30 11 Pd 0.3792 6.3543 -1.2968 0
M  V30 12 Pb 0.1305 6.0536 -0.3716 0
M  V30 13 Pb -0.5780 6.3540 -1.5934 0
M  V30 14 Pb 0.6691 6.6107 -2.2180 0
M  V30 15 Pb 1.3342 6.3827 -1.0145 0
M  V30 16 Pd 1.7330 3.4379 -5.6206 0
M  V30 17 Pb 1.7592 4.4078 -5.3745 0
M  V30 18 Pb 2.5377 3.2322 -5.0299 0
M  V30 19 Pb 0.8920 3.5969 -6.1308 0
M  V30 20 Pb 1.6797 2.4850 -5.8882 0
M  V30 21 Pd -2.7814 2.7546 -3.5394 0
M  V30 22 Pb -3.0236 2.5532 -2.5935 0
M  V30 23 Pb -2.9750 3.7153 -3.3469 0
M  V30 24 Pb -2.5608 2.9861 -4.4870 0
M  V30 25 Pb -2.5119 1.8009 -3.6885 0
M  V30 26 Pd 4.4580 -0.1756 -1.5715 0
M  V30 27 Pb 4.4101 0.6680 -2.1452 0
M  V30 28 Pb 4.9373 0.3248 -0.8490 0
M  V30 29 Pb 4.5150 -1.0166 -1.0351 0
M  V30 30 Pb 4.0235 -0.6986 -2.2928 0
M  V30 31 Pd 3.0962 3.4229 2.1185 0
M  V30 32 Pb 2.8659 2.6477 2.7081 0
M  V30 33 Pb 3.9797 2.9938 1.9422 0
M  V30 34 Pb 3.3661 4.1904 1.5434 0
M  V30 35 Pb 2.1905 3.8416 2.2267 0
M  V30 36 Pd -2.1016 -4.6171 -1.0230 0
M  V30 37 Pb -1.8821 -3.8918 -1.6789 0
M  V30 38 Pb -2.3328 -5.3676 -0.4147 0
M  V30 39 Pb -3.0370 -4.2614 -0.9418 0
M  V30 40 Pb -1.1661 -4.9848 -1.0097 0
M  V30 41 Pd -2.1472 -5.4546 5.9332 0
M  V30 42 Pb -3.1051 -5.1845 5.7671 0
M  V30 43 Pb -1.1676 -5.6416 5.9172 0
M  V30 44 Pb -2.2844 -6.1909 5.2829 0
M  V30 45 Pb -2.0340 -4.6628 6.5268 0
M  V30 46 Ag -4.4979 -0.1680 1.8615 0
M  V30 47 Fe -3.8569 1.0938 -0.0415 0
M  V30 48 Ag -3.2238 2.4501 -1.8812 0
M  V30 49 Ag 2.2740 -2.6748 3.3592 0
M  V30 50 Fe 2.5132 -0.3118 3.3093 0
M  V30 51 Ag 2.7585 2.0453 3.1435 0
M  V30 52 Ag -2.2651 1.0959 -3.7785 0
M  V30 53 Fe -2.0183 -1.1293 -2.9778 0
M  V30 54 Ag -1.7594 -3.3600 -2.1968 0
M  V30 55 Ag -4.3217 -0.9423 4.2154 0
M  V30 56 Fe -3.1152 -2.0864 5.8876 0
M  V30 57 Ag -2.0714 -3.9832 6.8207 0
M  V30 58 Ag 1.6818 1.7532 -5.9833 0
M  V30 59 Fe 2.5521 -0.0132 -4.6977 0
M  V30 60 Ag 3.6843 -0.9871 -2.8812 0
M  V30 61 Ag -2.4603 -5.9231 0.0619 0
M  V30 62 Fe -2.4863 -6.4996 2.3542 0
M  V30 63 Ag -2.4079 -6.6459 4.7118 0
M  V30 64 Ba 0.2234 3.6712 -6.4541 0
M  V30 65 Ga -1.1085 3.4415 -5.8706 0
M  V30 66 Ba -2.3884 3.1850 -5.1895 0
M  V30 67 Ba 3.1484 3.1062 -4.5801 0
M  V30 68 Ga 3.7170 2.1484 -3.5779 0
M  V30 69 Ba 4.4399 1.3123 -2.5665 0
M  V30 70 Ba 2.0487 6.4018 -0.8000 0
M  V30 71 Ga 2.8299 5.5980 0.1500 0
M  V30 72 Ba 3.5657 4.7647 1.1108 0
M  V30 73 Ba -5.1618 -3.0476 3.7587 0
M  V30 74 Ga -4.4530 -4.0043 4.6545 0
M  V30 75 Ba -3.8130 -4.9909 5.5696 0
M  V30 76 Ba -0.0173 5.8118 0.3275 0
M  V30 77 Ga 0.7337 4.9926 1.3066 0
M  V30 78 Ba 1.5128 4.1704 2.2609 0
M  V30 79 Ba 0.9248 6.7784 -2.9020 0
M  V30 80 Ga 1.3363 5.9642 -4.0615 0
M  V30 81 Ba 1.7462 5.1417 -5.2157 0
M  V30 82 Ba -5.2107 -2.4667 1.2092 0
M  V30 83 Ga -4.4641 -3.2372 0.1876 0
M  V30 84 Ba -3.7422 -4.0103 -0.8498 0
M  V30 85 Ba 3.2782 -3.5135 1.2130 0
M  V30 86 Ga 3.8496 -2.5242 0.2783 0
M  V30 87 Ba 4.5852 -1.6697 -0.6752 0
M  V30 88 Ba 1.6991 -5.2228 1.0673 0
M  V30 89 Ga 0.5999 -5.2757 0.0727 0
M  V30 90 Ba -0.4982 -5.3288 -0.9231 0
M  V30 91 Ba 1.5339 -4.9945 3.7459 0
M  V30 92 Ga 0.5128 -5.3557 4.7552 0
M  V30 93 Ba -0.4390 -5.7755 5.8094 0
M  V30 94 Ba 5.3141 0.6829 -0.3069 0
M  V30 95 Ga 4.9824 1.6697 0.7370 0
M  V30 96 Ba 4.6254 2.6567 1.7723 0
M  V30 97 Ba -1.2886 6.3725 -1.8392 0
M  V30 98 Ga -2.1973 5.4150 -2.4995 0
M  V30 99 Ba -3.0801 4.4323 -3.1576 0
M  V30 END ATOM
M  V30 BEGIN BOND
M  V30 1 1 1 2
M  V30 2 1 1 3
M  V30 3 1 1 4
M  V30 4 1 1 5
M  V30 5 1 6 7
M  V30 6 1 6 8
M  V30 7 1 6 9
M  V30 8 1 6 10
M  V30 9 1 11 12
M  V30 10 1 11 13
M  V30 11 1 11 14
M  V30 12 1 11 15
M  V30 13 1 16 17
M  V30 14 1 16 18
M  V30 15 1 16 19
M  V30 16 1 16 20
M  V30 17 1 21 22
M  V30 18 1 21 23
M  V30 19 1 21 24
M  V30 20 1 21 25
M  V30 21 1 26 27
M  V30 22 1 26 28
M  V30 23 1 26 29
M  V30 24 1 26 30
M  V30 25 1 31 32
M  V30 26 1 31 33
M  V30 27 1 31 34
M  V30 28 1 31 35
M  V30 29 1 36 37
M  V30 30 1 36 38
M  V30 31 1 36 39
M  V30 32 1 36 40
M  V30 33 1 41 42
M  V30 34 1 41 43
M  V30 35 1 41 44
M  V30 36 1 41 45
M  V30 37 1 46 47
M  V30 38 1 47 48
M  V30 39 1 49 50
M  V30 40 1 50 51
M  V30 41 1 52 53
M  V30 42 1 53 54
M  V30 43 1 55 56
M  V30 44 1 56 57
M  V30 45 1 58 59
M  V30 46 1 59 60
M  V30 47 1 61 62
M  V30 48 1 62 63
M  V30 49 1 64 65
M  V30 50 1 65 66
M  V30 51 1 67 68
M  V30 52 1 68 69
M  V30 53 1 70 71
M  V30 54 1 71 72
M  V30 55 1 73 74
M  V30 56 1 74 75
M  V30 57 1 76 77
M  V30 58 1 77 78
M  V30 59 1 79 80
M  V30 60 1 80 81
M  V30 61 1 82 83
M  V30 62 1 83 84
M  V30 63 1 85 86
M  V30 64 1 86 87
M  V30 65 1 88 89
M  V30 66 1 89 90
M  V30 67 1 91 92
M  V30 68 1 92 93
M  V30 69 1 94 95
M  V30 70 1 95 96
M  V30 71 1 97 98
M  V30 72 1 98 99
M  V30 73 1 2 49
M  V30 74 1 3 91
M  V30 75 1 4 85
M  V30 76 1 5 88
M  V30 77 1 7 46
M  V30 78 1 8 73
M  V30 79 1 9 82
M  V30 80 1 10 55
M  V30 81 1 12 76
M  V30 82 1 13 97
M  V30 83 1 14 79
M  V30 84 1 15 70
M  V30 85 1 17 81
M  V30 86 1 18 67
M  V30 87 1 19 64
M  V30 88 1 20 58
M  V30 89 1 22 48
M  V30 90 1 23 99
M  V30 91 1 24 66
M  V30 92 1 25 52
M  V30 93 1 27 69
M  V30 94 1 28 94
M  V30 95 1 29 87
M  V30 96 1 30 60
M  V30 97 1 32 51
M  V30 98 1 33 96
M  V30 99 1 34 72
M  V30 100 1 35 78
M  V30 101 1 37 54
M  V30 102 1 38 61
M  V30 103 1 39 84
M  V30 104 1 40 90
M  V30 105 1 42 75
M  V30 106 1 43 93
M  V30 107 1 44 63
M  V30 108 1 45 57
M  V30 END BOND
M  V30 END CTAB
M  END

$$$$
