
     RDKit          3D

  0  0  0  0  0  0  0  0  0  0999 V3000
M  V30 BEGIN CTAB
M  V30 COUNTS 99 108 0 0 0
M  V30 BEGIN ATOM
M  V30 1 Pd 1.8771 -3.0649 1.3713 0
M  V30 2 Pb 1.8840 -3.3348 0.4123 0
M  V30 3 Pb 2.7202 -3.5934 1.4695 0
M  V30 4 Pb 1.0452 -2.5437 1.1873 0
M  V30 5 Pb 1.8294 -2.7905 2.3356 0
M  V30 6 Pd -3.5431 -1.6699 3.0219 0
M  V30 7 Pb -3.1160 -0.9118 3.5119 0
M  V30 8 Pb -4.3106 -1.6179 3.6597 0
M  V30 9 Pb -2.8227 -1.6225 2.3313 0
M  V30 10 Pb -4.0414 -2.3467 2.4805 0
M  V30 11 Pd -5.8484 2.0854 2.5239 0
M  V30 12 Pb -5.3978 2.5609 1.7692 0
M  V30 13 Pb -6.2298 1.5117 3.2476 0
M  V30 14 Pb -6.6266 1.8632 1.9381 0
M  V30 15 Pb -5.0335 2.2121 3.0879 0
M  V30 16 Pd -1.1653 -1.2800 -5.2154 0
M  V30 17 Pb -1.7852 -0.5902 -5.5741 0
M  V30 18 Pb -0.3795 -0.8504 -5.6583 0
M  V30 19 Pb -1.9473 -1.7296 -4.7494 0
M  V30 20 Pb -0.5468 -1.9544 -4.8225 0
M  V30 21 Pd 0.9914 4.1970 -0.2779 0
M  V30 22 Pb 0.8999 3.9296 0.7031 0
M  V30 23 Pb 1.1104 4.3896 -1.2542 0
M  V30 24 Pb 0.0118 4.0498 -0.4201 0
M  V30 25 Pb 1.9373 4.4494 -0.1144 0
M  V30 26 Pd -6.0791 -1.1579 -1.6839 0
M  V30 27 Pb -5.3978 -1.6579 -2.2457 0
M  V30 28 Pb -6.1421 -0.4693 -2.3988 0
M  V30 29 Pb -6.7568 -0.6496 -1.1486 0
M  V30 30 Pb -5.9990 -1.8686 -0.9804 0
M  V30 31 Pd 6.8415 -1.9897 -0.1416 0
M  V30 32 Pb 7.2895 -1.1091 -0.2191 0
M  V30 33 Pb 7.1233 -2.0189 0.8135 0
M  V30 34 Pb 6.4534 -1.8710 -1.0812 0
M  V30 35 Pb 6.3594 -2.8489 0.0347 0
M  V30 36 Pd 3.2277 1.2710 4.4361 0
M  V30 37 Pb 4.0203 0.7236 4.6928 0
M  V30 38 Pb 3.8440 2.0200 4.2249 0
M  V30 39 Pb 2.6545 0.4645 4.5900 0
M  V30 40 Pb 2.4513 1.8210 4.0704 0
M  V30 41 Pd 3.6731 1.5144 -3.9019 0
M  V30 42 Pb 3.1047 1.0692 -4.5979 0
M  V30 43 Pb 4.2081 0.6557 -3.7349 0
M  V30 44 Pb 4.3069 2.0170 -3.3299 0
M  V30 45 Pb 3.1293 2.3508 -3.9989 0
M  V30 46 Ag 7.4814 -0.4014 -0.2968 0
M  V30 47 Fe 6.4575 1.3468 -1.4893 0
M  V30 48 Ag 4.8565 2.2977 -2.9250 0
M  V30 49 Ag -2.3364 -0.1146 -5.7120 0
M  V30 50 Fe -4.3785 0.2719 -4.5977 0
M  V30 51 Ag -6.0685 -0.0110 -2.9771 0
M  V30 52 Ag -5.0132 2.8576 1.1983 0
M  V30 53 Fe -2.8844 3.4401 0.3202 0
M  V30 54 Ag -0.7320 4.0028 -0.5124 0
M  V30 55 Ag 7.2125 -1.9680 1.5517 0
M  V30 56 Fe 6.0936 -0.9248 3.3594 0
M  V30 57 Ag 4.6304 0.3003 4.7618 0
M  V30 58 Ag 1.8598 -3.5228 -0.3092 0
M  V30 59 Fe 0.9370 -3.0475 -2.4396 0
M  V30 60 Ag -0.0801 -2.4310 -4.4894 0
M  V30 61 Ag 2.6134 4.6116 0.1376 0
M  V30 62 Fe 3.8417 3.8670 2.0023 0
M  V30 63 Ag 4.2414 2.5636 3.9208 0
M  V30 64 Ba 3.3433 -4.0094 1.4185 0
M  V30 65 Ga 4.6858 -3.7550 0.8564 0
M  V30 66 Ba 6.0192 -3.4699 0.2874 0
M  V30 67 Ba 0.2292 -0.5619 -5.9860 0
M  V30 68 Ga 1.4624 0.1168 -5.5394 0
M  V30 69 Ba 2.7248 0.7979 -5.1890 0
M  V30 70 Ba 1.7221 -2.5704 3.0487 0
M  V30 71 Ga 2.0081 -1.3716 3.8667 0
M  V30 72 Ba 2.2866 -0.1818 4.7004 0
M  V30 73 Ba -2.5096 -2.1256 -4.4155 0
M  V30 74 Ga -3.7042 -2.0052 -3.5298 0
M  V30 75 Ba -4.9178 -2.0794 -2.6650 0
M  V30 76 Ba -4.4578 -2.8087 2.0610 0
M  V30 77 Ga -5.1871 -2.6238 0.7894 0
M  V30 78 Ba -5.9137 -2.4271 -0.4821 0
M  V30 79 Ba -4.9072 -1.4782 4.0902 0
M  V30 80 Ga -5.7470 -0.2705 4.0192 0
M  V30 81 Ba -6.4314 1.0081 3.7638 0
M  V30 82 Ba 1.2170 4.4998 -1.9907 0
M  V30 83 Ga 1.9614 3.7545 -3.0281 0
M  V30 84 Ba 2.7179 2.9797 -4.0347 0
M  V30 85 Ba -2.8817 -0.2797 3.8366 0
M  V30 86 Ga -3.5596 1.0231 3.7387 0
M  V30 87 Ba -4.4062 2.2025 3.4966 0
M  V30 88 Ba 6.1675 -1.7798 -1.7939 0
M  V30 89 Ga 5.3729 -0.8330 -2.6504 0
M  V30 90 Ba 4.5996 -0.0060 -3.6399 0
M  V30 91 Ba 0.4387 -2.1581 0.9769 0
M  V30 92 Ga -0.9319 -1.8731 1.4380 0
M  V30 93 Ba -2.3181 -1.5153 1.7879 0
M  V30 94 Ba 0.7917 3.7312 1.4395 0
M  V30 95 Ga 1.3976 2.9677 2.5781 0
M  V30 96 Ba 1.8699 2.2496 3.8062 0
M  V30 97 Ba -7.1885 1.6401 1.4956 0
M  V30 98 Ga -7.2423 0.7016 0.3576 0
M  V30 99 Ba -7.2683 -0.2421 -0.7771 0
M  V30 END ATOM
M  V30 BEGIN BOND
M  V30 1 1 1 2
M  V30 2 1 1 3
M  V30 3 1 1 4
M  V30 4 1 1 5
M  V30 5 1 6 7
M  V30 6 1 6 8
M  V30 7 1 6 9
M  V30 8 1 6 10
M  V30 9 1 11 12
M  V30 10 1 11 13
M  V30 11 1 11 14
M  V30 12 1 11 15
M  V30 13 1 16 17
M  V30 14 1 16 18
M  V30 15 1 16 19
M  V30 16 1 16 20
M  V30 17 1 21 22
M  V30 18 1 21 23
M  V30 19 1 21 24
M  V30 20 1 21 25
M  V30 21 1 26 27
M  V30 22 1 26 28
M  V30 23 1 26 29
M  V30 24 1 26 30
M  V30 25 1 31 32
M  V30 26 1 31 33
M  V30 27 1 31 34
M  V30 28 1 31 35
M  V30 29 1 36 37
M  V30 30 1 36 38
M  V30 31 1 36 39
M  V30 32 1 36 40
M  V30 33 1 41 42
M  V30 34 1 41 43
M  V30 35 1 41 44
M  V30 36 1 41 45
M  V30 37 1 46 47
M  V30 38 1 47 48
M  V30 39 1 49 50
M  V30 40 1 50 51
M  V30 41 1 52 53
M  V30 42 1 53 54
M  V30 43 1 55 56
M  V30 44 1 56 57
M  V30 45 1 58 59
M  V30 46 1 59 60
M  V30 47 1 61 62
M  V30 48 1 62 63
M  V30 49 1 64 65
M  V30 50 1 65 66
M  V30 51 1 67 68
M  V30 52 1 68 69
M  V30 53 1 70 71
M  V30 54 1 71 72
M  V30 55 1 73 74
M  V30 56 1 74 75
M  V30 57 1 76 77
M  V30 58 1 77 78
M  V30 59 1 79 80
M  V30 60 1 80 81
M  V30 61 1 82 83
M  V30 62 1 83 84
M  V30 63 1 85 86
M  V30 64 1 86 87
M  V30 65 1 88 89
M  V30 66 1 89 90
M  V30 67 1 91 92
M  V30 68 1 92 93
M  V30 69 1 94 95
M  V30 70 1 95 96
M  V30 71 1 97 98
M  V30 72 1 98 99
M  V30 73 1 2 58
M  V30 74 1 3 64
M  V30 75 1 4 91
M  V30 76 1 5 70
M  V30 77 1 7 85
M  V30 78 1 8 79
M  V30 79 1 9 93
M  V30 80 1 10 76
M  V30 81 1 12 52
M  V30 82 1 13 81
M  V30 83 1 14 97
M  V30 84 1 15 87
M  V30 85 1 17 49
M  V30 86 1 18 67
M  V30 87 1 19 73
M  V30 88 1 20 60
M  V30 89 1 22 94
M  V30 90 1 23 82
M  V30 91 1 24 54
M  V30 92 1 25 61
M  V30 93 1 27 75
M  V30 94 1 28 51
M  V30 95 1 29 99
M  V30 96 1 30 78
M  V30 97 1 32 46
M  V30 98 1 33 55
M  V30 99 1 34 88
M  V30 100 1 35 66
M  V30 101 1 37 57
M  V30 102 1 38 63
M  V30 103 1 39 72
M  V30 104 1 40 96
M  V30 105 1 42 69
M  V30 106 1 43 90
M  V30 107 1 44 48
M  V30 108 1 45 84
M  V30 END BOND
M  V30 END CTAB
M  END

$$$$
