
     RDKit          3D

  0  0  0  0  0  0  0  0  0  0999 V3000
M  V30 BEGIN CTAB
M  V30 COUNTS 99 108 0 0 0
M  V30 BEGIN ATOM
M  V30 1 Pd 7.4663 1.7602 1.2539 0
M  V30 2 Pb 7.5072 0.8828 0.7835 0
M  V30 3 Pb 7.1649 1.3190 2.0991 0
M  V30 4 Pb 7.2414 2.6777 1.5906 0
M  V30 5 Pb 7.6998 2.1858 0.3874 0
M  V30 6 Pd -4.0848 -0.4338 -4.3261 0
M  V30 7 Pb -4.3796 0.4931 -4.0503 0
M  V30 8 Pb -3.7655 -1.3516 -4.5419 0
M  V30 9 Pb -4.7245 -0.8344 -3.6508 0
M  V30 10 Pb -3.4540 -0.0173 -4.9744 0
M  V30 11 Pd -2.4837 4.8300 -2.1042 0
M  V30 12 Pb -3.2129 4.2101 -2.4346 0
M  V30 13 Pb -1.7801 5.4652 -1.7859 0
M  V30 14 Pb -2.0634 4.7773 -3.0053 0
M  V30 15 Pb -2.8815 4.8099 -1.1864 0
M  V30 16 Pd 3.1415 5.7674 -2.1889 0
M  V30 17 Pb 2.2651 6.1235 -1.8628 0
M  V30 18 Pb 3.6080 6.0850 -1.3593 0
M  V30 19 Pb 4.0282 5.4458 -2.5015 0
M  V30 20 Pb 2.7234 5.2454 -2.9315 0
M  V30 21 Pd 2.4293 -1.5827 -3.0826 0
M  V30 22 Pb 1.4813 -1.7342 -3.3418 0
M  V30 23 Pb 2.3888 -0.6794 -3.5214 0
M  V30 24 Pb 3.3842 -1.4855 -2.7956 0
M  V30 25 Pb 2.4300 -2.4752 -2.5990 0
M  V30 26 Pd -3.1358 0.3646 3.9855 0
M  V30 27 Pb -3.3859 1.2592 3.6124 0
M  V30 28 Pb -2.8687 -0.5376 4.3205 0
M  V30 29 Pb -4.0246 -0.0094 3.7187 0
M  V30 30 Pb -2.2509 0.7277 4.2816 0
M  V30 31 Pd -4.8958 -3.5819 0.6456 0
M  V30 32 Pb -4.4736 -4.1743 -0.0345 0
M  V30 33 Pb -5.3163 -3.0556 -0.1097 0
M  V30 34 Pb -4.4564 -4.0952 1.3829 0
M  V30 35 Pb -5.3169 -2.9616 1.3079 0
M  V30 36 Pd 1.6351 -1.8852 4.8088 0
M  V30 37 Pb 0.6948 -2.2177 4.8756 0
M  V30 38 Pb 2.5789 -1.5514 4.7847 0
M  V30 39 Pb 1.3061 -0.9510 4.9506 0
M  V30 40 Pb 1.9409 -2.8183 4.6173 0
M  V30 41 Pd 0.0186 -5.1494 1.0552 0
M  V30 42 Pb 0.7525 -4.9930 0.3722 0
M  V30 43 Pb 0.6981 -5.2789 1.7792 0
M  V30 44 Pb -0.6541 -4.9839 0.3416 0
M  V30 45 Pb -0.7239 -5.2853 1.7101 0
M  V30 46 Ag 2.4981 4.7316 -3.4303 0
M  V30 47 Fe 2.3571 2.3736 -3.7124 0
M  V30 48 Ag 2.2867 -0.0012 -3.8379 0
M  V30 49 Ag 6.9839 3.3784 1.6954 0
M  V30 50 Fe 5.5271 4.9286 0.6262 0
M  V30 51 Ag 4.0139 6.1701 -0.7293 0
M  V30 52 Ag 6.9081 0.9666 2.7093 0
M  V30 53 Fe 5.1025 -0.1640 3.7611 0
M  V30 54 Ag 3.2841 -1.2921 4.7934 0
M  V30 55 Ag -2.9980 0.4262 -5.3580 0
M  V30 56 Fe -2.1503 2.5803 -4.8965 0
M  V30 57 Ag -1.8121 4.5699 -3.6724 0
M  V30 58 Ag 7.4248 0.2958 0.3284 0
M  V30 59 Fe 5.8092 -0.6706 -1.1199 0
M  V30 60 Ag 4.0875 -1.5038 -2.5287 0
M  V30 61 Ag 7.7566 2.5238 -0.2705 0
M  V30 62 Fe 6.4097 3.8821 -1.6588 0
M  V30 63 Ag 4.7104 5.1924 -2.6504 0
M  V30 64 Ag -3.5672 -2.0666 -4.5288 0
M  V30 65 Fe -3.6905 -3.6569 -2.7898 0
M  V30 66 Ag -4.1736 -4.4910 -0.6356 0
M  V30 67 Ag -3.1620 4.7470 -0.4930 0
M  V30 68 Fe -3.3911 3.3771 1.4348 0
M  V30 69 Ag -3.5570 1.9239 3.3072 0
M  V30 70 Ag 0.7760 -1.9505 -3.4115 0
M  V30 71 Fe -0.5519 -3.3591 -2.0662 0
M  V30 72 Ag -1.0556 -4.7650 -0.2420 0
M  V30 73 Ba -5.2426 -1.1102 -3.1644 0
M  V30 74 Ga -5.3746 -1.9014 -1.9093 0
M  V30 75 Ba -5.6646 -2.6725 -0.6683 0
M  V30 76 Ba -4.6301 1.1781 -3.8341 0
M  V30 77 Ga -4.1387 2.4604 -3.2587 0
M  V30 78 Ba -3.7976 3.7930 -2.6891 0
M  V30 79 Ba -1.2770 5.9610 -1.5346 0
M  V30 80 Ga 0.1840 6.1592 -1.5878 0
M  V30 81 Ba 1.6342 6.4292 -1.5945 0
M  V30 82 Ba -4.1041 -4.4768 1.9242 0
M  V30 83 Ga -2.7122 -4.9374 2.0802 0
M  V30 84 Ba -1.3057 -5.3698 2.1748 0
M  V30 85 Ba 2.4785 -3.1497 -2.2425 0
M  V30 86 Ga 1.8335 -3.9756 -1.1799 0
M  V30 87 Ba 1.3057 -4.9177 -0.1498 0
M  V30 88 Ba -1.5883 0.9874 4.5224 0
M  V30 89 Ga -0.2687 0.3774 4.7796 0
M  V30 90 Ba 1.0428 -0.2527 5.0300 0
M  V30 91 Ba -2.6530 -1.2171 4.5495 0
M  V30 92 Ga -1.3376 -1.8499 4.7519 0
M  V30 93 Ba -0.0106 -2.4607 4.9470 0
M  V30 94 Ba -4.6913 -0.3050 3.5414 0
M  V30 95 Ga -5.1594 -1.3931 2.6613 0
M  V30 96 Ba -5.6381 -2.4791 1.7845 0
M  V30 97 Ba 2.1404 -3.5209 4.4450 0
M  V30 98 Ga 1.6901 -4.4552 3.3944 0
M  V30 99 Ba 1.2071 -5.3534 2.3268 0
M  V30 END ATOM
M  V30 BEGIN BOND
M  V30 1 1 1 2
M  V30 2 1 1 3
M  V30 3 1 1 4
M  V30 4 1 1 5
M  V30 5 1 6 7
M  V30 6 1 6 8
M  V30 7 1 6 9
M  V30 8 1 6 10
M  V30 9 1 11 12
M  V30 10 1 11 13
M  V30 11 1 11 14
M  V30 12 1 11 15
M  V30 13 1 16 17
M  V30 14 1 16 18
M  V30 15 1 16 19
M  V30 16 1 16 20
M  V30 17 1 21 22
M  V30 18 1 21 23
M  V30 19 1 21 24
M  V30 20 1 21 25
M  V30 21 1 26 27
M  V30 22 1 26 28
M  V30 23 1 26 29
M  V30 24 1 26 30
M  V30 25 1 31 32
M  V30 26 1 31 33
M  V30 27 1 31 34
M  V30 28 1 31 35
M  V30 29 1 36 37
M  V30 30 1 36 38
M  V30 31 1 36 39
M  V30 32 1 36 40
M  V30 33 1 41 42
M  V30 34 1 41 43
M  V30 35 1 41 44
M  V30 36 1 41 45
M  V30 37 1 46 47
M  V30 38 1 47 48
M  V30 39 1 49 50
M  V30 40 1 50 51
M  V30 41 1 52 53
M  V30 42 1 53 54
M  V30 43 1 55 56
M  V30 44 1 56 57
M  V30 45 1 58 59
M  V30 46 1 59 60
M  V30 47 1 61 62
M  V30 48 1 62 63
M  V30 49 1 64 65
M  V30 50 1 65 66
M  V30 51 1 67 68
M  V30 52 1 68 69
M  V30 53 1 70 71
M  V30 54 1 71 72
M  V30 55 1 73 74
M  V30 56 1 74 75
M  V30 57 1 76 77
M  V30 58 1 77 78
M  V30 59 1 79 80
M  V30 60 1 80 81
M  V30 61 1 82 83
M  V30 62 1 83 84
M  V30 63 1 85 86
M  V30 64 1 86 87
M  V30 65 1 88 89
M  V30 66 1 89 90
M  V30 67 1 91 92
M  V30 68 1 92 93
M  V30 69 1 94 95
M  V30 70 1 95 96
M  V30 71 1 97 98
M  V30 72 1 98 99
M  V30 73 1 2 58
M  V30 74 1 3 52
M  V30 75 1 4 49
M  V30 76 1 5 61
M  V30 77 1 7 76
M  V30 78 1 8 64
M  V30 79 1 9 73
M  V30 80 1 10 55
M  V30 81 1 12 78
M  V30 82 1 13 79
M  V30 83 1 14 57
M  V30 84 1 15 67
M  V30 85 1 17 81
M  V30 86 1 18 51
M  V30 87 1 19 63
M  V30 88 1 20 46
M  V30 89 1 22 70
M  V30 90 1 23 48
M  V30 91 1 24 60
M  V30 92 1 25 85
M  V30 93 1 27 69
M  V30 94 1 28 91
M  V30 95 1 29 94
M  V30 96 1 30 88
M  V30 97 1 32 66
M  V30 98 1 33 75
M  V30 99 1 34 82
M  V30 100 1 35 96
M  V30 101 1 37 93
M  V30 102 1 38 54
M  V30 103 1 39 90
M  V30 104 1 40 97
M  V30 105 1 42 87
M  V30 106 1 43 99
M  V30 107 1 44 72
M  V30 108 1 45 84
M  V30 END BOND
M  V30 END CTAB
M  END

$$$$
