
     RDKit          3D

  0  0  0  0  0  0  0  0  0  0999 V3000
M  V30 BEGIN CTAB
M  V30 COUNTS 99 108 0 0 0
M  V30 BEGIN ATOM
M  V30 1 Pd 2.9607 -2.5771 0.7286 0
M  V30 2 Pb 3.6045 -2.4962 1.4850 0
M  V30 3 Pb 2.2822 -2.6565 -0.0054 0
M  V30 4 Pb 2.7954 -3.5153 1.0299 0
M  V30 5 Pb 3.0733 -1.6015 0.5379 0
M  V30 6 Pd -0.1138 -0.5901 -8.5975 0
M  V30 7 Pb -0.7976 -0.1447 -8.0173 0
M  V30 8 Pb 0.5793 -1.0129 -9.1748 0
M  V30 9 Pb 0.2341 0.3142 -8.8327 0
M  V30 10 Pb -0.3117 -1.5001 -8.1935 0
M  V30 11 Pd -1.6069 4.1918 5.1598 0
M  V30 12 Pb -1.3690 3.5354 5.9097 0
M  V30 13 Pb -1.8015 4.7592 4.3577 0
M  V30 14 Pb -2.5568 3.8829 5.1354 0
M  V30 15 Pb -0.6876 4.5619 5.1926 0
M  V30 16 Pd -6.1638 -0.7287 2.2380 0
M  V30 17 Pb -6.3929 0.1013 2.7368 0
M  V30 18 Pb -5.7607 -1.5325 1.7985 0
M  V30 19 Pb -6.2443 -0.2427 1.3696 0
M  V30 20 Pb -5.9931 -1.1706 3.1128 0
M  V30 21 Pd -2.3655 4.0030 -2.5094 0
M  V30 22 Pb -2.3987 3.4798 -3.3643 0
M  V30 23 Pb -2.3691 4.5188 -1.6486 0
M  V30 24 Pb -3.1811 3.4953 -2.2293 0
M  V30 25 Pb -1.5708 4.5376 -2.8072 0
M  V30 26 Pd -0.4222 -4.3041 4.4625 0
M  V30 27 Pb -0.9979 -4.4065 3.6476 0
M  V30 28 Pb 0.0953 -4.1354 5.3050 0
M  V30 29 Pb 0.3568 -4.6928 3.9635 0
M  V30 30 Pb -1.2340 -3.9707 4.9325 0
M  V30 31 Pd 2.1242 -0.0244 7.1769 0
M  V30 32 Pb 2.9441 -0.4896 6.8580 0
M  V30 33 Pb 1.7149 -0.9321 7.3137 0
M  V30 34 Pb 2.5964 0.8376 7.0472 0
M  V30 35 Pb 1.2622 0.4910 7.3689 0
M  V30 36 Pd 3.0331 3.4779 -3.8611 0
M  V30 37 Pb 2.3780 4.2256 -3.7493 0
M  V30 38 Pb 3.6474 2.6912 -3.9371 0
M  V30 39 Pb 2.9290 3.5606 -4.8526 0
M  V30 40 Pb 3.0886 3.3219 -2.8786 0
M  V30 41 Pd 2.4519 -3.5716 -4.8322 0
M  V30 42 Pb 3.0010 -3.7959 -5.6326 0
M  V30 43 Pb 1.8978 -3.3552 -4.0260 0
M  V30 44 Pb 3.2466 -3.1291 -4.4246 0
M  V30 45 Pb 1.6152 -3.7714 -5.3675 0
M  V30 46 Ag -1.3025 0.2279 -7.6038 0
M  V30 47 Fe -1.8443 1.6451 -5.7732 0
M  V30 48 Ag -2.5051 3.0577 -3.9787 0
M  V30 49 Ag 4.0255 -2.4360 2.0980 0
M  V30 50 Fe 3.9678 -1.6881 4.3445 0
M  V30 51 Ag 3.5055 -0.8219 6.4996 0
M  V30 52 Ag -6.2546 0.1588 0.7381 0
M  V30 53 Fe -5.0449 1.6341 -0.6759 0
M  V30 54 Ag -3.8024 3.1082 -2.0624 0
M  V30 55 Ag -5.3526 -2.1194 1.5671 0
M  V30 56 Fe -3.4310 -3.3720 2.1946 0
M  V30 57 Ag -1.4897 -4.4243 3.0775 0
M  V30 58 Ag 0.0253 4.7318 5.2777 0
M  V30 59 Fe 1.8379 3.4591 6.0652 0
M  V30 60 Ag 2.8573 1.5121 6.8997 0
M  V30 61 Ag 1.1471 -1.3976 -9.4555 0
M  V30 62 Fe 2.6143 -2.8357 -8.3090 0
M  V30 63 Ag 3.3004 -3.8643 -6.3072 0
M  V30 64 Ag -5.7631 -1.4883 3.7453 0
M  V30 65 Fe -3.8972 -2.6302 4.6511 0
M  V30 66 Ag -1.8818 -3.7370 5.2168 0
M  V30 67 Ag -3.2804 3.6974 5.0758 0
M  V30 68 Fe -4.9458 2.2726 4.1684 0
M  V30 69 Ag -6.4219 0.7145 3.1593 0
M  V30 70 Ag 0.5718 0.9801 -8.8593 0
M  V30 71 Fe 1.7168 2.4213 -7.3614 0
M  V30 72 Ag 2.7813 3.5846 -5.5876 0
M  V30 73 Ag 3.1325 -0.8570 0.4609 0
M  V30 74 Fe 3.1444 1.1448 -0.8152 0
M  V30 75 Ag 3.1464 3.0941 -2.1699 0
M  V30 76 Ag 4.0642 2.0672 -3.8975 0
M  V30 77 Fe 4.0811 -0.3047 -4.0162 0
M  V30 78 Ag 3.7856 -2.6515 -4.2243 0
M  V30 79 Ag -1.9385 5.1383 3.7230 0
M  V30 80 Fe -2.1623 5.0475 1.3572 0
M  V30 81 Ag -2.3778 4.9147 -1.0075 0
M  V30 82 Ba -0.9957 4.9807 -3.0073 0
M  V30 83 Ga 0.4376 4.8534 -3.3418 0
M  V30 84 Ba 1.8730 4.7768 -3.6834 0
M  V30 85 Ba -0.4096 -2.1830 -7.8601 0
M  V30 86 Ga 0.2996 -3.0051 -6.8303 0
M  V30 87 Ba 0.9909 -3.8456 -5.8032 0
M  V30 88 Ba -1.2165 3.0358 6.4813 0
M  V30 89 Ga -0.2516 1.9739 6.9299 0
M  V30 90 Ba 0.6198 0.8960 7.5121 0
M  V30 91 Ba 2.6772 -4.1857 1.3440 0
M  V30 92 Ga 1.7872 -4.6150 2.4429 0
M  V30 93 Ba 0.8907 -5.0216 3.5452 0
M  V30 94 Ba 1.7472 -2.7013 -0.5328 0
M  V30 95 Ga 1.6435 -2.9554 -1.9850 0
M  V30 96 Ba 1.4643 -3.2008 -3.4314 0
M  V30 97 Ba 0.3936 -3.9799 5.9796 0
M  V30 98 Ga 0.9511 -2.7943 6.6713 0
M  V30 99 Ba 1.5152 -1.6521 7.4275 0
M  V30 END ATOM
M  V30 BEGIN BOND
M  V30 1 1 1 2
M  V30 2 1 1 3
M  V30 3 1 1 4
M  V30 4 1 1 5
M  V30 5 1 6 7
M  V30 6 1 6 8
M  V30 7 1 6 9
M  V30 8 1 6 10
M  V30 9 1 11 12
M  V30 10 1 11 13
M  V30 11 1 11 14
M  V30 12 1 11 15
M  V30 13 1 16 17
M  V30 14 1 16 18
M  V30 15 1 16 19
M  V30 16 1 16 20
M  V30 17 1 21 22
M  V30 18 1 21 23
M  V30 19 1 21 24
M  V30 20 1 21 25
M  V30 21 1 26 27
M  V30 22 1 26 28
M  V30 23 1 26 29
M  V30 24 1 26 30
M  V30 25 1 31 32
M  V30 26 1 31 33
M  V30 27 1 31 34
M  V30 28 1 31 35
M  V30 29 1 36 37
M  V30 30 1 36 38
M  V30 31 1 36 39
M  V30 32 1 36 40
M  V30 33 1 41 42
M  V30 34 1 41 43
M  V30 35 1 41 44
M  V30 36 1 41 45
M  V30 37 1 46 47
M  V30 38 1 47 48
M  V30 39 1 49 50
M  V30 40 1 50 51
M  V30 41 1 52 53
M  V30 42 1 53 54
M  V30 43 1 55 56
M  V30 44 1 56 57
M  V30 45 1 58 59
M  V30 46 1 59 60
M  V30 47 1 61 62
M  V30 48 1 62 63
M  V30 49 1 64 65
M  V30 50 1 65 66
M  V30 51 1 67 68
M  V30 52 1 68 69
M  V30 53 1 70 71
M  V30 54 1 71 72
M  V30 55 1 73 74
M  V30 56 1 74 75
M  V30 57 1 76 77
M  V30 58 1 77 78
M  V30 59 1 79 80
M  V30 60 1 80 81
M  V30 61 1 82 83
M  V30 62 1 83 84
M  V30 63 1 85 86
M  V30 64 1 86 87
M  V30 65 1 88 89
M  V30 66 1 89 90
M  V30 67 1 91 92
M  V30 68 1 92 93
M  V30 69 1 94 95
M  V30 70 1 95 96
M  V30 71 1 97 98
M  V30 72 1 98 99
M  V30 73 1 2 49
M  V30 74 1 3 94
M  V30 75 1 4 91
M  V30 76 1 5 73
M  V30 77 1 7 46
M  V30 78 1 8 61
M  V30 79 1 9 70
M  V30 80 1 10 85
M  V30 81 1 12 88
M  V30 82 1 13 79
M  V30 83 1 14 67
M  V30 84 1 15 58
M  V30 85 1 17 69
M  V30 86 1 18 55
M  V30 87 1 19 52
M  V30 88 1 20 64
M  V30 89 1 22 48
M  V30 90 1 23 81
M  V30 91 1 24 54
M  V30 92 1 25 82
M  V30 93 1 27 57
M  V30 94 1 28 97
M  V30 95 1 29 93
M  V30 96 1 30 66
M  V30 97 1 32 51
M  V30 98 1 33 99
M  V30 99 1 34 60
M  V30 100 1 35 90
M  V30 101 1 37 84
M  V30 102 1 38 76
M  V30 103 1 39 72
M  V30 104 1 40 75
M  V30 105 1 42 63
M  V30 106 1 43 96
M  V30 107 1 44 78
M  V30 108 1 45 87
M  V30 END BOND
M  V30 END CTAB
M  END

$$$$
