
     RDKit          3D

  0  0  0  0  0  0  0  0  0  0999 V3000
M  V30 BEGIN CTAB
M  V30 COUNTS 99 108 0 0 0
M  V30 BEGIN ATOM
M  V30 1 Pd 2.2726 -1.9235 -0.6971 0
M  V30 2 Pb 2.6665 -2.7746 -1.0443 0
M  V30 3 Pb 1.7656 -1.8380 -1.5575 0
M  V30 4 Pb 2.8000 -2.0177 0.1469 0
M  V30 5 Pb 1.7899 -1.1477 -0.2798 0
M  V30 6 Pd 3.3474 4.4837 -4.7260 0
M  V30 7 Pb 2.4449 4.8266 -4.4695 0
M  V30 8 Pb 2.9524 4.0382 -5.5341 0
M  V30 9 Pb 3.7423 4.8923 -3.8981 0
M  V30 10 Pb 4.2327 4.1009 -4.9889 0
M  V30 11 Pd -5.8012 -1.9333 -0.1057 0
M  V30 12 Pb -5.2217 -2.2885 -0.8409 0
M  V30 13 Pb -5.9010 -1.0553 -0.5674 0
M  V30 14 Pb -6.3301 -1.5578 0.6572 0
M  V30 15 Pb -5.6380 -2.7989 0.3661 0
M  V30 16 Pd -4.4066 0.8665 4.2929 0
M  V30 17 Pb -5.2772 0.6169 3.8633 0
M  V30 18 Pb -4.3246 -0.0554 4.6756 0
M  V30 19 Pb -4.4709 1.8124 3.9635 0
M  V30 20 Pb -3.5340 1.0663 4.7376 0
M  V30 21 Pd -2.6410 4.7278 0.3018 0
M  V30 22 Pb -2.1892 4.9351 -0.5655 0
M  V30 23 Pb -3.3850 4.2819 -0.1907 0
M  V30 24 Pb -3.1349 4.5744 1.1625 0
M  V30 25 Pb -1.8646 5.1394 0.7795 0
M  V30 26 Pd 1.0539 -3.3693 6.1882 0
M  V30 27 Pb 0.0872 -3.5187 6.3892 0
M  V30 28 Pb 1.1732 -4.3136 5.8851 0
M  V30 29 Pb 1.9525 -3.1653 5.8105 0
M  V30 30 Pb 0.8960 -2.3998 6.3705 0
M  V30 31 Pd -0.0805 -6.3014 -0.2234 0
M  V30 32 Pb 0.8120 -6.1700 -0.6600 0
M  V30 33 Pb 0.3465 -6.6744 0.5994 0
M  V30 34 Pb -0.9727 -6.3567 0.2248 0
M  V30 35 Pb -0.5494 -5.8480 -0.9812 0
M  V30 36 Pd 2.6389 3.4829 0.4089 0
M  V30 37 Pb 2.0468 4.2068 0.7713 0
M  V30 38 Pb 3.2351 2.7451 0.1001 0
M  V30 39 Pb 3.2411 4.1638 -0.0118 0
M  V30 40 Pb 2.0015 2.7784 0.7149 0
M  V30 41 Pd 3.7006 -0.1651 -5.4668 0
M  V30 42 Pb 3.2215 0.3039 -6.2054 0
M  V30 43 Pb 2.8632 -0.6369 -5.1876 0
M  V30 44 Pb 4.1400 -0.4590 -4.6256 0
M  V30 45 Pb 4.5064 0.3885 -5.6695 0
M  V30 46 Ag 1.7587 5.0605 -4.2817 0
M  V30 47 Fe -0.0451 5.0854 -2.7379 0
M  V30 48 Ag -1.8648 5.1278 -1.2134 0
M  V30 49 Ag -4.2020 -0.7187 5.0071 0
M  V30 50 Fe -2.5359 -2.2269 5.7772 0
M  V30 51 Ag -0.6607 -3.5306 6.4305 0
M  V30 52 Ag -5.4246 -3.4530 0.6625 0
M  V30 53 Fe -3.6106 -4.9848 0.6940 0
M  V30 54 Ag -1.6542 -6.3210 0.5358 0
M  V30 55 Ag -4.7451 -2.5930 -1.3354 0
M  V30 56 Fe -2.8535 -4.0143 -1.5510 0
M  V30 57 Ag -0.9730 -5.4639 -1.4667 0
M  V30 58 Ag -2.8754 1.1228 5.0909 0
M  V30 59 Fe -1.0118 -0.1507 5.8267 0
M  V30 60 Ag 0.7025 -1.6785 6.4291 0
M  V30 61 Ag 3.1736 -2.0860 0.7929 0
M  V30 62 Fe 3.0275 -2.5273 3.1190 0
M  V30 63 Ag 2.5485 -3.0054 5.3921 0
M  V30 64 Ag 3.6435 2.1620 -0.1280 0
M  V30 65 Fe 4.1599 0.7049 -1.9231 0
M  V30 66 Ag 4.4137 -0.5148 -3.9373 0
M  V30 67 Ag 1.2649 -4.9796 5.5551 0
M  V30 68 Fe 0.9999 -6.0772 3.4673 0
M  V30 69 Ag 0.6147 -6.8814 1.2675 0
M  V30 70 Ag -5.9379 -0.3705 -0.8631 0
M  V30 71 Fe -5.0007 1.8063 -0.7876 0
M  V30 72 Ag -3.9214 3.9042 -0.5486 0
M  V30 73 Ba 2.8942 -3.4511 -1.2757 0
M  V30 74 Ga 2.2273 -4.7633 -1.1526 0
M  V30 75 Ba 1.4778 -6.0240 -0.9783 0
M  V30 76 Ba -1.2571 5.4378 1.1031 0
M  V30 77 Ga 0.1787 5.0898 1.0879 0
M  V30 78 Ba 1.6152 4.7446 1.0740 0
M  V30 79 Ba -4.5157 2.5405 3.7743 0
M  V30 80 Ga -4.0013 3.4773 2.7508 0
M  V30 81 Ba -3.5508 4.5065 1.7877 0
M  V30 82 Ba 4.8564 3.7527 -5.2156 0
M  V30 83 Ga 5.0512 2.3238 -5.5155 0
M  V30 84 Ba 5.0687 0.8725 -5.7670 0
M  V30 85 Ba 2.6798 3.6629 -6.1282 0
M  V30 86 Ga 2.7357 2.2289 -6.4771 0
M  V30 87 Ba 2.8789 0.7730 -6.6766 0
M  V30 88 Ba -6.7100 -1.2303 1.2170 0
M  V30 89 Ga -6.3216 -0.4199 2.3904 0
M  V30 90 Ba -5.9288 0.3904 3.5624 0
M  V30 91 Ba 4.0332 5.1886 -3.2684 0
M  V30 92 Ga 3.8639 4.9354 -1.8205 0
M  V30 93 Ba 3.6723 4.6578 -0.3799 0
M  V30 94 Ba 1.3985 -0.6268 0.1013 0
M  V30 95 Ga 1.4779 0.7995 0.4792 0
M  V30 96 Ba 1.5249 2.2231 0.8727 0
M  V30 97 Ba 1.4141 -1.8130 -2.2225 0
M  V30 98 Ga 1.8065 -1.3864 -3.5819 0
M  V30 99 Ba 2.2313 -0.9494 -4.9281 0
M  V30 END ATOM
M  V30 BEGIN BOND
M  V30 1 1 1 2
M  V30 2 1 1 3
M  V30 3 1 1 4
M  V30 4 1 1 5
M  V30 5 1 6 7
M  V30 6 1 6 8
M  V30 7 1 6 9
M  V30 8 1 6 10
M  V30 9 1 11 12
M  V30 10 1 11 13
M  V30 11 1 11 14
M  V30 12 1 11 15
M  V30 13 1 16 17
M  V30 14 1 16 18
M  V30 15 1 16 19
M  V30 16 1 16 20
M  V30 17 1 21 22
M  V30 18 1 21 23
M  V30 19 1 21 24
M  V30 20 1 21 25
M  V30 21 1 26 27
M  V30 22 1 26 28
M  V30 23 1 26 29
M  V30 24 1 26 30
M  V30 25 1 31 32
M  V30 26 1 31 33
M  V30 27 1 31 34
M  V30 28 1 31 35
M  V30 29 1 36 37
M  V30 30 1 36 38
M  V30 31 1 36 39
M  V30 32 1 36 40
M  V30 33 1 41 42
M  V30 34 1 41 43
M  V30 35 1 41 44
M  V30 36 1 41 45
M  V30 37 1 46 47
M  V30 38 1 47 48
M  V30 39 1 49 50
M  V30 40 1 50 51
M  V30 41 1 52 53
M  V30 42 1 53 54
M  V30 43 1 55 56
M  V30 44 1 56 57
M  V30 45 1 58 59
M  V30 46 1 59 60
M  V30 47 1 61 62
M  V30 48 1 62 63
M  V30 49 1 64 65
M  V30 50 1 65 66
M  V30 51 1 67 68
M  V30 52 1 68 69
M  V30 53 1 70 71
M  V30 54 1 71 72
M  V30 55 1 73 74
M  V30 56 1 74 75
M  V30 57 1 76 77
M  V30 58 1 77 78
M  V30 59 1 79 80
M  V30 60 1 80 81
M  V30 61 1 82 83
M  V30 62 1 83 84
M  V30 63 1 85 86
M  V30 64 1 86 87
M  V30 65 1 88 89
M  V30 66 1 89 90
M  V30 67 1 91 92
M  V30 68 1 92 93
M  V30 69 1 94 95
M  V30 70 1 95 96
M  V30 71 1 97 98
M  V30 72 1 98 99
M  V30 73 1 2 73
M  V30 74 1 3 97
M  V30 75 1 4 61
M  V30 76 1 5 94
M  V30 77 1 7 46
M  V30 78 1 8 85
M  V30 79 1 9 91
M  V30 80 1 10 82
M  V30 81 1 12 55
M  V30 82 1 13 70
M  V30 83 1 14 88
M  V30 84 1 15 52
M  V30 85 1 17 90
M  V30 86 1 18 49
M  V30 87 1 19 79
M  V30 88 1 20 58
M  V30 89 1 22 48
M  V30 90 1 23 72
M  V30 91 1 24 81
M  V30 92 1 25 76
M  V30 93 1 27 51
M  V30 94 1 28 67
M  V30 95 1 29 63
M  V30 96 1 30 60
M  V30 97 1 32 75
M  V30 98 1 33 69
M  V30 99 1 34 54
M  V30 100 1 35 57
M  V30 101 1 37 78
M  V30 102 1 38 64
M  V30 103 1 39 93
M  V30 104 1 40 96
M  V30 105 1 42 87
M  V30 106 1 43 99
M  V30 107 1 44 66
M  V30 108 1 45 84
M  V30 END BOND
M  V30 END CTAB
M  END

$$$$
