
     RDKit          3D

  0  0  0  0  0  0  0  0  0  0999 V3000
M  V30 BEGIN CTAB
M  V30 COUNTS 99 108 0 0 0
M  V30 BEGIN ATOM
M  V30 1 Pd -0.6319 -1.7682 3.5082 0
M  V30 2 Pb -1.1259 -0.9963 3.1104 0
M  V30 3 Pb -0.1959 -2.5679 3.9228 0
M  V30 4 Pb 0.2478 -1.5088 3.1028 0
M  V30 5 Pb -1.5234 -2.0546 3.8468 0
M  V30 6 Pd 0.4351 -6.3230 -1.9134 0
M  V30 7 Pb 0.6934 -5.3802 -1.7106 0
M  V30 8 Pb 1.1260 -6.6479 -1.2510 0
M  V30 9 Pb -0.4020 -6.0197 -2.3658 0
M  V30 10 Pb 0.1832 -7.2656 -2.1197 0
M  V30 11 Pd -0.8413 6.5043 -3.2222 0
M  V30 12 Pb -0.7055 7.0965 -2.4223 0
M  V30 13 Pb -0.9974 5.8573 -3.9683 0
M  V30 14 Pb 0.0882 6.6760 -3.5560 0
M  V30 15 Pb -1.7811 6.3592 -2.9235 0
M  V30 16 Pd 4.2375 4.4994 -2.5888 0
M  V30 17 Pb 3.8304 5.2039 -3.1699 0
M  V30 18 Pb 4.6070 3.7927 -1.9565 0
M  V30 19 Pb 3.9618 3.7947 -3.2429 0
M  V30 20 Pb 4.5267 5.2045 -1.9505 0
M  V30 21 Pd -0.1134 1.1949 -3.5256 0
M  V30 22 Pb 0.3108 0.4972 -2.9523 0
M  V30 23 Pb -0.5307 1.8883 -4.1163 0
M  V30 24 Pb 0.7745 1.3976 -3.9390 0
M  V30 25 Pb -0.9926 0.9542 -3.1088 0
M  V30 26 Pd 3.6888 2.1757 2.6892 0
M  V30 27 Pb 4.2710 2.0833 1.8640 0
M  V30 28 Pb 3.0120 2.3851 3.3889 0
M  V30 29 Pb 3.3187 1.2583 2.5286 0
M  V30 30 Pb 4.0637 3.0844 2.8376 0
M  V30 31 Pd -2.4602 5.5148 1.4536 0
M  V30 32 Pb -2.8398 4.6053 1.5958 0
M  V30 33 Pb -1.8825 5.3415 2.2499 0
M  V30 34 Pb -3.0442 5.6407 0.6570 0
M  V30 35 Pb -1.9864 6.3652 1.2137 0
M  V30 36 Pd -3.7640 -4.2348 0.5739 0
M  V30 37 Pb -3.7651 -3.3408 0.1163 0
M  V30 38 Pb -3.7903 -5.0989 1.0885 0
M  V30 39 Pb -3.5559 -4.6425 -0.3232 0
M  V30 40 Pb -3.9675 -3.8174 1.4586 0
M  V30 41 Pd -0.3924 -7.5052 3.0901 0
M  V30 42 Pb 0.5010 -7.5431 2.6210 0
M  V30 43 Pb -0.1080 -6.6789 3.5837 0
M  V30 44 Pb -1.3585 -7.3847 3.3081 0
M  V30 45 Pb -0.6427 -8.3707 2.6643 0
M  V30 46 Ag 0.8992 -4.6768 -1.5587 0
M  V30 47 Fe 0.7695 -2.3543 -2.0266 0
M  V30 48 Ag 0.6104 -0.0406 -2.5278 0
M  V30 49 Ag -1.6022 -0.4718 2.8650 0
M  V30 50 Fe -2.3093 1.7155 2.2757 0
M  V30 51 Ag -3.0411 3.8910 1.6729 0
M  V30 52 Ag -1.6262 0.7272 -2.7720 0
M  V30 53 Fe -2.7175 -0.9625 -1.5016 0
M  V30 54 Ag -3.7784 -2.6715 -0.2312 0
M  V30 55 Ag -0.0353 -7.9725 -2.0872 0
M  V30 56 Fe -0.5941 -9.1066 -0.1078 0
M  V30 57 Ag -0.7870 -8.9534 2.2288 0
M  V30 58 Ag 4.7210 5.6259 -1.3739 0
M  V30 59 Fe 4.7108 5.1549 0.9323 0
M  V30 60 Ag 4.3269 3.7751 2.8001 0
M  V30 61 Ag 2.4649 2.6727 3.8064 0
M  V30 62 Fe 0.4624 3.9042 3.4923 0
M  V30 63 Ag -1.4699 5.1109 2.8311 0
M  V30 64 Ba 3.7658 3.2746 -3.7467 0
M  V30 65 Ga 2.5954 2.4095 -3.9874 0
M  V30 66 Ba 1.4411 1.5311 -4.2563 0
M  V30 67 Ba 4.9070 3.2599 -1.4927 0
M  V30 68 Ga 4.7530 2.6813 -0.1225 0
M  V30 69 Ba 4.6857 2.0332 1.2235 0
M  V30 70 Ba -2.4810 6.2627 -2.6822 0
M  V30 71 Ga -3.0186 5.9943 -1.3420 0
M  V30 72 Ba -3.4484 5.7266 0.0365 0
M  V30 73 Ba 1.5838 -6.8878 -0.6906 0
M  V30 74 Ga 1.3702 -7.2217 0.7484 0
M  V30 75 Ba 1.1247 -7.5485 2.1838 0
M  V30 76 Ba -0.6445 7.5064 -1.7915 0
M  V30 77 Ga -1.1130 7.2754 -0.4054 0
M  V30 78 Ba -1.6149 6.9664 0.9535 0
M  V30 79 Ba 0.7703 6.8140 -3.8419 0
M  V30 80 Ga 2.1365 6.2708 -3.7041 0
M  V30 81 Ba 3.5101 5.7430 -3.5812 0
M  V30 82 Ba -1.0920 -5.8368 -2.5966 0
M  V30 83 Ga -2.2573 -5.3463 -1.8252 0
M  V30 84 Ba -3.4117 -4.8610 -1.0341 0
M  V30 85 Ba 0.9140 -1.3911 2.7731 0
M  V30 86 Ga 1.9632 -0.3627 2.6138 0
M  V30 87 Ba 3.0901 0.5606 2.3660 0
M  V30 88 Ba -2.2257 -2.2474 4.0067 0
M  V30 89 Ga -3.2061 -2.9000 3.1254 0
M  V30 90 Ba -4.0907 -3.5561 2.1500 0
M  V30 91 Ba -3.8621 -5.6617 1.5903 0
M  V30 92 Ga -2.9909 -6.4898 2.4560 0
M  V30 93 Ba -2.1054 -7.3174 3.3074 0
M  V30 94 Ba 0.1221 -3.1636 4.2507 0
M  V30 95 Ga 0.1096 -4.6316 4.0800 0
M  V30 96 Ba 0.1624 -6.1058 3.9916 0
M  V30 97 Ba -1.1394 5.3420 -4.4944 0
M  V30 98 Ga -0.9768 3.8754 -4.5449 0
M  V30 99 Ba -0.8094 2.4089 -4.5819 0
M  V30 END ATOM
M  V30 BEGIN BOND
M  V30 1 1 1 2
M  V30 2 1 1 3
M  V30 3 1 1 4
M  V30 4 1 1 5
M  V30 5 1 6 7
M  V30 6 1 6 8
M  V30 7 1 6 9
M  V30 8 1 6 10
M  V30 9 1 11 12
M  V30 10 1 11 13
M  V30 11 1 11 14
M  V30 12 1 11 15
M  V30 13 1 16 17
M  V30 14 1 16 18
M  V30 15 1 16 19
M  V30 16 1 16 20
M  V30 17 1 21 22
M  V30 18 1 21 23
M  V30 19 1 21 24
M  V30 20 1 21 25
M  V30 21 1 26 27
M  V30 22 1 26 28
M  V30 23 1 26 29
M  V30 24 1 26 30
M  V30 25 1 31 32
M  V30 26 1 31 33
M  V30 27 1 31 34
M  V30 28 1 31 35
M  V30 29 1 36 37
M  V30 30 1 36 38
M  V30 31 1 36 39
M  V30 32 1 36 40
M  V30 33 1 41 42
M  V30 34 1 41 43
M  V30 35 1 41 44
M  V30 36 1 41 45
M  V30 37 1 46 47
M  V30 38 1 47 48
M  V30 39 1 49 50
M  V30 40 1 50 51
M  V30 41 1 52 53
M  V30 42 1 53 54
M  V30 43 1 55 56
M  V30 44 1 56 57
M  V30 45 1 58 59
M  V30 46 1 59 60
M  V30 47 1 61 62
M  V30 48 1 62 63
M  V30 49 1 64 65
M  V30 50 1 65 66
M  V30 51 1 67 68
M  V30 52 1 68 69
M  V30 53 1 70 71
M  V30 54 1 71 72
M  V30 55 1 73 74
M  V30 56 1 74 75
M  V30 57 1 76 77
M  V30 58 1 77 78
M  V30 59 1 79 80
M  V30 60 1 80 81
M  V30 61 1 82 83
M  V30 62 1 83 84
M  V30 63 1 85 86
M  V30 64 1 86 87
M  V30 65 1 88 89
M  V30 66 1 89 90
M  V30 67 1 91 92
M  V30 68 1 92 93
M  V30 69 1 94 95
M  V30 70 1 95 96
M  V30 71 1 97 98
M  V30 72 1 98 99
M  V30 73 1 2 49
M  V30 74 1 3 94
M  V30 75 1 4 85
M  V30 76 1 5 88
M  V30 77 1 7 46
M  V30 78 1 8 73
M  V30 79 1 9 82
M  V30 80 1 10 55
M  V30 81 1 12 76
M  V30 82 1 13 97
M  V30 83 1 14 79
M  V30 84 1 15 70
M  V30 85 1 17 81
M  V30 86 1 18 67
M  V30 87 1 19 64
M  V30 88 1 20 58
M  V30 89 1 22 48
M  V30 90 1 23 99
M  V30 91 1 24 66
M  V30 92 1 25 52
M  V30 93 1 27 69
M  V30 94 1 28 61
M  V30 95 1 29 87
M  V30 96 1 30 60
M  V30 97 1 32 51
M  V30 98 1 33 63
M  V30 99 1 34 72
M  V30 100 1 35 78
M  V30 101 1 37 54
M  V30 102 1 38 91
M  V30 103 1 39 84
M  V30 104 1 40 90
M  V30 105 1 42 75
M  V30 106 1 43 96
M  V30 107 1 44 93
M  V30 108 1 45 57
M  V30 END BOND
M  V30 END CTAB
M  END

$$$$
