
     RDKit          3D

  0  0  0  0  0  0  0  0  0  0999 V3000
M  V30 BEGIN CTAB
M  V30 COUNTS 99 108 0 0 0
M  V30 BEGIN ATOM
M  V30 1 Pd 3.7447 -1.0125 -3.5695 0
M  V30 2 Pb 4.0742 -0.2329 -3.0470 0
M  V30 3 Pb 4.3250 -1.6412 -3.0531 0
M  V30 4 Pb 3.0499 -0.4113 -3.9963 0
M  V30 5 Pb 3.3830 -1.8163 -4.0402 0
M  V30 6 Pd -3.1112 5.3457 2.2256 0
M  V30 7 Pb -3.7739 4.8070 2.7301 0
M  V30 8 Pb -2.3508 5.9954 2.2567 0
M  V30 9 Pb -2.4417 4.6001 2.2649 0
M  V30 10 Pb -3.7515 4.7975 1.6495 0
M  V30 11 Pd -5.7250 0.3720 -0.2950 0
M  V30 12 Pb -5.5778 1.3766 -0.2335 0
M  V30 13 Pb -5.3431 0.3380 -1.2195 0
M  V30 14 Pb -5.8402 -0.6190 -0.3065 0
M  V30 15 Pb -6.0934 0.4106 0.6251 0
M  V30 16 Pd -1.1072 1.9103 -2.2834 0
M  V30 17 Pb -0.3618 2.3825 -1.8233 0
M  V30 18 Pb -1.8621 1.4458 -2.7439 0
M  V30 19 Pb -0.4633 1.6671 -3.0300 0
M  V30 20 Pb -1.7329 2.1088 -1.5293 0
M  V30 21 Pd 4.4879 0.9565 -0.4171 0
M  V30 22 Pb 4.2480 1.3031 -1.3229 0
M  V30 23 Pb 4.6530 0.8139 0.5582 0
M  V30 24 Pb 3.7561 0.2754 -0.4338 0
M  V30 25 Pb 5.1569 1.7091 -0.3660 0
M  V30 26 Pd -2.2520 -6.0264 1.7536 0
M  V30 27 Pb -3.0879 -5.6528 1.3558 0
M  V30 28 Pb -1.3995 -6.4010 2.1241 0
M  V30 29 Pb -2.2039 -6.7072 1.0236 0
M  V30 30 Pb -2.3004 -5.3419 2.4845 0
M  V30 31 Pd 1.8326 -7.2585 -0.9064 0
M  V30 32 Pb 1.7606 -7.4150 0.0788 0
M  V30 33 Pb 1.8543 -6.9938 -1.8690 0
M  V30 34 Pb 0.9415 -7.6937 -1.0194 0
M  V30 35 Pb 2.6959 -6.7633 -0.8062 0
M  V30 36 Pd -2.2837 -0.3500 2.6496 0
M  V30 37 Pb -2.6102 0.3640 2.0260 0
M  V30 38 Pb -2.3537 -1.2572 3.0748 0
M  V30 39 Pb -1.6236 -0.7017 1.9848 0
M  V30 40 Pb -1.8121 0.5319 2.5876 0
M  V30 41 Pd 4.2875 6.2718 1.0073 0
M  V30 42 Pb 3.4986 6.8028 1.3135 0
M  V30 43 Pb 5.0139 5.6492 0.6900 0
M  V30 44 Pb 4.4590 5.9189 1.9264 0
M  V30 45 Pb 4.0570 6.4086 0.0446 0
M  V30 46 Ag 3.1260 -2.4679 -4.3054 0
M  V30 47 Fe 2.4694 -4.6370 -3.6010 0
M  V30 48 Ag 1.8917 -6.6845 -2.5495 0
M  V30 49 Ag 4.7550 0.9619 1.2835 0
M  V30 50 Fe 4.7529 3.0767 2.3506 0
M  V30 51 Ag 4.5846 5.4359 2.4827 0
M  V30 52 Ag 4.1460 0.3783 -2.6349 0
M  V30 53 Fe 2.4873 1.8480 -1.8326 0
M  V30 54 Ag 0.2830 2.6368 -1.5598 0
M  V30 55 Ag 4.0777 1.7825 -1.8703 0
M  V30 56 Fe 3.8782 4.1389 -1.7326 0
M  V30 57 Ag 3.9101 6.2568 -0.6721 0
M  V30 58 Ag -5.8931 -1.3644 -0.2829 0
M  V30 59 Fe -4.8480 -3.3951 0.3597 0
M  V30 60 Ag -3.7006 -5.3549 1.0464 0
M  V30 61 Ag -4.2642 4.3684 3.0700 0
M  V30 62 Fe -5.4928 2.4185 2.5862 0
M  V30 63 Ag -6.2683 0.5943 1.3173 0
M  V30 64 Ag 3.1709 -0.1933 -0.4192 0
M  V30 65 Fe 1.0275 -0.6302 0.5066 0
M  V30 66 Ag -1.1037 -0.9526 1.5049 0
M  V30 67 Ag -1.7730 6.4741 2.2757 0
M  V30 68 Fe 0.5420 6.8714 1.9242 0
M  V30 69 Ag 2.8689 7.1431 1.5350 0
M  V30 70 Ag 4.6495 -2.1766 -2.6414 0
M  V30 71 Fe 4.1469 -4.2752 -1.6506 0
M  V30 72 Ag 3.3094 -6.3316 -0.8084 0
M  V30 73 Ba -2.2237 2.2267 -0.9748 0
M  V30 74 Ga -2.5280 1.5673 0.3107 0
M  V30 75 Ba -2.8612 0.9329 1.6016 0
M  V30 76 Ba -1.8935 4.0852 2.2999 0
M  V30 77 Ga -1.7156 2.6231 2.4184 0
M  V30 78 Ba -1.4306 1.1777 2.5344 0
M  V30 79 Ba -2.1332 -7.2182 0.4801 0
M  V30 80 Ga -0.9708 -7.6352 -0.3224 0
M  V30 81 Ba 0.2513 -7.9775 -1.0697 0
M  V30 82 Ba -5.0485 0.2993 -1.9091 0
M  V30 83 Ga -3.7586 0.6973 -2.5030 0
M  V30 84 Ba -2.4554 1.1115 -3.0554 0
M  V30 85 Ba -0.7507 -6.7010 2.3581 0
M  V30 86 Ga 0.4683 -7.1085 1.6301 0
M  V30 87 Ba 1.6425 -7.4841 0.8166 0
M  V30 88 Ba -4.2436 4.4879 1.1445 0
M  V30 89 Ga -4.8171 3.2423 0.5464 0
M  V30 90 Ba -5.5172 2.1394 -0.1838 0
M  V30 91 Ba 2.5135 0.0347 -4.3062 0
M  V30 92 Ga 1.2683 0.7516 -3.9003 0
M  V30 93 Ba 0.0137 1.5055 -3.6062 0
M  V30 94 Ba 5.6427 2.2898 -0.3195 0
M  V30 95 Ga 5.5756 3.7232 0.0680 0
M  V30 96 Ba 5.5404 5.1594 0.4494 0
M  V30 97 Ba -2.3530 -4.8397 3.0423 0
M  V30 98 Ga -2.3693 -3.3684 3.1957 0
M  V30 99 Ba -2.3960 -1.9111 3.4484 0
M  V30 END ATOM
M  V30 BEGIN BOND
M  V30 1 1 1 2
M  V30 2 1 1 3
M  V30 3 1 1 4
M  V30 4 1 1 5
M  V30 5 1 6 7
M  V30 6 1 6 8
M  V30 7 1 6 9
M  V30 8 1 6 10
M  V30 9 1 11 12
M  V30 10 1 11 13
M  V30 11 1 11 14
M  V30 12 1 11 15
M  V30 13 1 16 17
M  V30 14 1 16 18
M  V30 15 1 16 19
M  V30 16 1 16 20
M  V30 17 1 21 22
M  V30 18 1 21 23
M  V30 19 1 21 24
M  V30 20 1 21 25
M  V30 21 1 26 27
M  V30 22 1 26 28
M  V30 23 1 26 29
M  V30 24 1 26 30
M  V30 25 1 31 32
M  V30 26 1 31 33
M  V30 27 1 31 34
M  V30 28 1 31 35
M  V30 29 1 36 37
M  V30 30 1 36 38
M  V30 31 1 36 39
M  V30 32 1 36 40
M  V30 33 1 41 42
M  V30 34 1 41 43
M  V30 35 1 41 44
M  V30 36 1 41 45
M  V30 37 1 46 47
M  V30 38 1 47 48
M  V30 39 1 49 50
M  V30 40 1 50 51
M  V30 41 1 52 53
M  V30 42 1 53 54
M  V30 43 1 55 56
M  V30 44 1 56 57
M  V30 45 1 58 59
M  V30 46 1 59 60
M  V30 47 1 61 62
M  V30 48 1 62 63
M  V30 49 1 64 65
M  V30 50 1 65 66
M  V30 51 1 67 68
M  V30 52 1 68 69
M  V30 53 1 70 71
M  V30 54 1 71 72
M  V30 55 1 73 74
M  V30 56 1 74 75
M  V30 57 1 76 77
M  V30 58 1 77 78
M  V30 59 1 79 80
M  V30 60 1 80 81
M  V30 61 1 82 83
M  V30 62 1 83 84
M  V30 63 1 85 86
M  V30 64 1 86 87
M  V30 65 1 88 89
M  V30 66 1 89 90
M  V30 67 1 91 92
M  V30 68 1 92 93
M  V30 69 1 94 95
M  V30 70 1 95 96
M  V30 71 1 97 98
M  V30 72 1 98 99
M  V30 73 1 2 52
M  V30 74 1 3 70
M  V30 75 1 4 91
M  V30 76 1 5 46
M  V30 77 1 7 61
M  V30 78 1 8 67
M  V30 79 1 9 76
M  V30 80 1 10 88
M  V30 81 1 12 90
M  V30 82 1 13 82
M  V30 83 1 14 58
M  V30 84 1 15 63
M  V30 85 1 17 54
M  V30 86 1 18 84
M  V30 87 1 19 93
M  V30 88 1 20 73
M  V30 89 1 22 55
M  V30 90 1 23 49
M  V30 91 1 24 64
M  V30 92 1 25 94
M  V30 93 1 27 60
M  V30 94 1 28 85
M  V30 95 1 29 79
M  V30 96 1 30 97
M  V30 97 1 32 87
M  V30 98 1 33 48
M  V30 99 1 34 81
M  V30 100 1 35 72
M  V30 101 1 37 75
M  V30 102 1 38 99
M  V30 103 1 39 66
M  V30 104 1 40 78
M  V30 105 1 42 69
M  V30 106 1 43 96
M  V30 107 1 44 51
M  V30 108 1 45 57
M  V30 END BOND
M  V30 END CTAB
M  END

$$$$
