
     RDKit          3D

  0  0  0  0  0  0  0  0  0  0999 V3000
M  V30 BEGIN CTAB
M  V30 COUNTS 99 108 0 0 0
M  V30 BEGIN ATOM
M  V30 1 Pd -0.1426 -1.6114 2.1110 0
M  V30 2 Pb 0.4101 -2.4463 2.1379 0
M  V30 3 Pb -0.6835 -0.7707 2.1263 0
M  V30 4 Pb -0.1099 -1.5411 3.1058 0
M  V30 5 Pb -0.1707 -1.6647 1.1107 0
M  V30 6 Pd -7.9163 0.6363 -3.6130 0
M  V30 7 Pb -7.1896 1.0793 -4.1362 0
M  V30 8 Pb -8.1218 1.5034 -3.1563 0
M  V30 9 Pb -7.6400 -0.2721 -3.9316 0
M  V30 10 Pb -8.5967 0.2174 -3.0157 0
M  V30 11 Pd 6.9286 -1.0109 -2.3814 0
M  V30 12 Pb 7.7299 -0.9357 -1.7981 0
M  V30 13 Pb 6.1185 -1.0757 -2.9643 0
M  V30 14 Pb 7.0540 -0.0595 -2.6483 0
M  V30 15 Pb 6.7118 -1.9058 -1.9559 0
M  V30 16 Pd 3.6836 4.3338 0.8335 0
M  V30 17 Pb 4.4073 4.2829 0.1469 0
M  V30 18 Pb 4.3303 4.1087 1.5645 0
M  V30 19 Pb 3.0396 4.5010 0.0863 0
M  V30 20 Pb 2.9512 4.3415 1.5146 0
M  V30 21 Pd -0.3561 1.0606 -4.8535 0
M  V30 22 Pb -1.2494 1.4896 -4.9829 0
M  V30 23 Pb 0.5317 0.6023 -4.7855 0
M  V30 24 Pb -0.0094 1.8924 -4.4165 0
M  V30 25 Pb -0.7400 0.2218 -5.2361 0
M  V30 26 Pd 3.0651 1.2167 4.9887 0
M  V30 27 Pb 3.8782 1.7195 4.6909 0
M  V30 28 Pb 3.6049 0.4385 5.3132 0
M  V30 29 Pb 2.2546 0.7058 5.2694 0
M  V30 30 Pb 2.5030 1.9746 4.6532 0
M  V30 31 Pd 5.2491 -3.2045 2.7216 0
M  V30 32 Pb 4.3195 -3.5657 2.6139 0
M  V30 33 Pb 5.0716 -2.9188 3.6637 0
M  V30 34 Pb 5.4595 -3.4344 1.7528 0
M  V30 35 Pb 6.1818 -2.8800 2.8337 0
M  V30 36 Pd -3.5380 -2.4247 -2.5426 0
M  V30 37 Pb -3.1625 -2.3597 -3.4683 0
M  V30 38 Pb -3.8936 -2.5133 -1.6080 0
M  V30 39 Pb -4.4469 -2.5460 -2.9538 0
M  V30 40 Pb -2.6128 -2.2792 -2.1829 0
M  V30 41 Pd -7.0549 1.0673 2.7934 0
M  V30 42 Pb -7.4116 1.9264 2.4310 0
M  V30 43 Pb -6.1410 1.4543 2.8922 0
M  V30 44 Pb -6.6480 0.1612 2.8833 0
M  V30 45 Pb -7.9175 0.6413 2.5345 0
M  V30 46 Ag -6.6232 1.4354 -4.4735 0
M  V30 47 Fe -4.2818 1.6274 -4.8172 0
M  V30 48 Ag -1.9313 1.7679 -5.1217 0
M  V30 49 Ag 2.5923 4.5913 -0.5097 0
M  V30 50 Fe 1.3935 3.5746 -2.2920 0
M  V30 51 Ag 0.2095 2.5173 -4.0605 0
M  V30 52 Ag -9.0390 -0.0306 -2.4681 0
M  V30 53 Fe -9.0461 -0.0021 -0.1001 0
M  V30 54 Ag -8.4940 0.3317 2.1783 0
M  V30 55 Ag -8.2409 2.0805 -2.6907 0
M  V30 56 Fe -8.0472 2.5496 -0.3707 0
M  V30 57 Ag -7.6631 2.4601 1.9706 0
M  V30 58 Ag 8.2308 -0.9313 -1.2540 0
M  V30 59 Fe 8.0365 -1.6656 0.9733 0
M  V30 60 Ag 6.8711 -2.6152 2.7839 0
M  V30 61 Ag 7.0773 0.6832 -2.7119 0
M  V30 62 Fe 6.0923 2.5681 -1.6635 0
M  V30 63 Ag 4.9168 4.1898 -0.3937 0
M  V30 64 Ag -4.1291 -2.5787 -0.8947 0
M  V30 65 Fe -5.2026 -1.6403 1.0075 0
M  V30 66 Ag -6.3167 -0.5003 2.7705 0
M  V30 67 Ag -1.0894 -0.1474 2.2232 0
M  V30 68 Fe -3.2196 0.8449 2.5586 0
M  V30 69 Ag -5.4243 1.6662 2.8736 0
M  V30 70 Ag 5.5151 -1.1239 -3.4073 0
M  V30 71 Fe 3.3421 -0.4092 -4.0496 0
M  V30 72 Ag 1.1723 0.2095 -4.7938 0
M  V30 73 Ba 0.8151 -3.0786 2.1702 0
M  V30 74 Ga 2.2367 -3.4427 2.3475 0
M  V30 75 Ba 3.6394 -3.8753 2.5206 0
M  V30 76 Ba -1.0589 -0.4074 -5.4871 0
M  V30 77 Ga -1.9653 -1.3759 -4.8427 0
M  V30 78 Ba -2.8701 -2.3184 -4.1587 0
M  V30 79 Ba 4.7972 3.9095 2.1188 0
M  V30 80 Ga 4.6544 3.0198 3.2894 0
M  V30 81 Ba 4.4642 2.1210 4.4462 0
M  V30 82 Ba 6.5267 -2.5637 -1.6121 0
M  V30 83 Ga 6.0800 -3.0442 -0.2682 0
M  V30 84 Ba 5.6303 -3.6323 1.0312 0
M  V30 85 Ba 2.4216 4.3148 2.0454 0
M  V30 86 Ga 2.2360 3.4424 3.2218 0
M  V30 87 Ba 2.0940 2.5453 4.3855 0
M  V30 88 Ba -7.4265 -0.9757 -4.0898 0
M  V30 89 Ga -6.2581 -1.8005 -3.7080 0
M  V30 90 Ba -5.0954 -2.6355 -3.3306 0
M  V30 91 Ba -0.0899 -1.4330 3.8455 0
M  V30 92 Ga 0.7713 -0.5874 4.6884 0
M  V30 93 Ba 1.6713 0.2802 5.4660 0
M  V30 94 Ba -0.1505 -1.7128 0.3605 0
M  V30 95 Ga -1.0739 -1.9397 -0.7713 0
M  V30 96 Ba -1.8982 -2.1571 -1.9789 0
M  V30 97 Ba 3.9494 -0.1781 5.5694 0
M  V30 98 Ga 4.4719 -1.4207 4.9665 0
M  V30 99 Ba 4.9953 -2.6637 4.3656 0
M  V30 END ATOM
M  V30 BEGIN BOND
M  V30 1 1 1 2
M  V30 2 1 1 3
M  V30 3 1 1 4
M  V30 4 1 1 5
M  V30 5 1 6 7
M  V30 6 1 6 8
M  V30 7 1 6 9
M  V30 8 1 6 10
M  V30 9 1 11 12
M  V30 10 1 11 13
M  V30 11 1 11 14
M  V30 12 1 11 15
M  V30 13 1 16 17
M  V30 14 1 16 18
M  V30 15 1 16 19
M  V30 16 1 16 20
M  V30 17 1 21 22
M  V30 18 1 21 23
M  V30 19 1 21 24
M  V30 20 1 21 25
M  V30 21 1 26 27
M  V30 22 1 26 28
M  V30 23 1 26 29
M  V30 24 1 26 30
M  V30 25 1 31 32
M  V30 26 1 31 33
M  V30 27 1 31 34
M  V30 28 1 31 35
M  V30 29 1 36 37
M  V30 30 1 36 38
M  V30 31 1 36 39
M  V30 32 1 36 40
M  V30 33 1 41 42
M  V30 34 1 41 43
M  V30 35 1 41 44
M  V30 36 1 41 45
M  V30 37 1 46 47
M  V30 38 1 47 48
M  V30 39 1 49 50
M  V30 40 1 50 51
M  V30 41 1 52 53
M  V30 42 1 53 54
M  V30 43 1 55 56
M  V30 44 1 56 57
M  V30 45 1 58 59
M  V30 46 1 59 60
M  V30 47 1 61 62
M  V30 48 1 62 63
M  V30 49 1 64 65
M  V30 50 1 65 66
M  V30 51 1 67 68
M  V30 52 1 68 69
M  V30 53 1 70 71
M  V30 54 1 71 72
M  V30 55 1 73 74
M  V30 56 1 74 75
M  V30 57 1 76 77
M  V30 58 1 77 78
M  V30 59 1 79 80
M  V30 60 1 80 81
M  V30 61 1 82 83
M  V30 62 1 83 84
M  V30 63 1 85 86
M  V30 64 1 86 87
M  V30 65 1 88 89
M  V30 66 1 89 90
M  V30 67 1 91 92
M  V30 68 1 92 93
M  V30 69 1 94 95
M  V30 70 1 95 96
M  V30 71 1 97 98
M  V30 72 1 98 99
M  V30 73 1 2 73
M  V30 74 1 3 67
M  V30 75 1 4 91
M  V30 76 1 5 94
M  V30 77 1 7 46
M  V30 78 1 8 55
M  V30 79 1 9 88
M  V30 80 1 10 52
M  V30 81 1 12 58
M  V30 82 1 13 70
M  V30 83 1 14 61
M  V30 84 1 15 82
M  V30 85 1 17 63
M  V30 86 1 18 79
M  V30 87 1 19 49
M  V30 88 1 20 85
M  V30 89 1 22 48
M  V30 90 1 23 72
M  V30 91 1 24 51
M  V30 92 1 25 76
M  V30 93 1 27 81
M  V30 94 1 28 97
M  V30 95 1 29 93
M  V30 96 1 30 87
M  V30 97 1 32 75
M  V30 98 1 33 99
M  V30 99 1 34 84
M  V30 100 1 35 60
M  V30 101 1 37 78
M  V30 102 1 38 64
M  V30 103 1 39 90
M  V30 104 1 40 96
M  V30 105 1 42 57
M  V30 106 1 43 69
M  V30 107 1 44 66
M  V30 108 1 45 54
M  V30 END BOND
M  V30 END CTAB
M  END

$$$$
