
     RDKit          3D

  0  0  0  0  0  0  0  0  0  0999 V3000
M  V30 BEGIN CTAB
M  V30 COUNTS 99 108 0 0 0
M  V30 BEGIN ATOM
M  V30 1 Pd -3.6934 -4.2252 1.7586 0
M  V30 2 Pb -3.2824 -4.5562 2.6078 0
M  V30 3 Pb -4.3092 -3.5994 2.2416 0
M  V30 4 Pb -3.0640 -4.8102 1.2535 0
M  V30 5 Pb -4.0350 -3.9073 0.8721 0
M  V30 6 Pd 0.6711 -2.6507 3.7190 0
M  V30 7 Pb 1.0716 -1.7847 3.4085 0
M  V30 8 Pb 1.1427 -3.1508 2.9890 0
M  V30 9 Pb 0.1873 -3.4790 3.9991 0
M  V30 10 Pb 0.2072 -2.2101 4.4867 0
M  V30 11 Pd -3.9026 6.5862 4.1546 0
M  V30 12 Pb -3.6411 6.7718 5.0961 0
M  V30 13 Pb -4.1499 6.4188 3.2008 0
M  V30 14 Pb -4.7120 6.0728 4.4902 0
M  V30 15 Pb -3.0174 6.9253 3.8421 0
M  V30 16 Pd -1.1447 4.0883 0.7407 0
M  V30 17 Pb -0.8679 4.8409 1.3420 0
M  V30 18 Pb -0.3542 3.5331 1.0113 0
M  V30 19 Pb -1.4223 3.3965 0.0748 0
M  V30 20 Pb -1.9820 4.5936 0.5385 0
M  V30 21 Pd 7.2919 1.2759 -4.2351 0
M  V30 22 Pb 7.7275 0.3665 -4.2583 0
M  V30 23 Pb 6.8766 1.1178 -5.1300 0
M  V30 24 Pb 7.6508 1.3978 -3.3129 0
M  V30 25 Pb 6.6899 2.0682 -4.1526 0
M  V30 26 Pd 0.5056 1.0653 -6.0400 0
M  V30 27 Pb 1.0531 1.7634 -5.5749 0
M  V30 28 Pb -0.2024 1.1253 -5.3371 0
M  V30 29 Pb -0.0074 0.3527 -6.5188 0
M  V30 30 Pb 1.2777 0.9569 -6.6630 0
M  V30 31 Pd 5.9964 -3.6727 -1.9925 0
M  V30 32 Pb 6.6925 -3.2614 -2.6031 0
M  V30 33 Pb 6.4589 -3.2412 -1.2218 0
M  V30 34 Pb 5.5072 -4.0397 -2.7850 0
M  V30 35 Pb 5.2804 -4.0268 -1.3882 0
M  V30 36 Pd -0.8490 -4.0679 -4.9382 0
M  V30 37 Pb -0.9672 -3.4590 -5.7228 0
M  V30 38 Pb 0.0801 -4.3070 -5.2191 0
M  V30 39 Pb -1.7435 -3.8068 -4.5707 0
M  V30 40 Pb -0.7491 -4.6631 -4.1448 0
M  V30 41 Pd -4.9088 1.6487 6.7287 0
M  V30 42 Pb -5.4486 2.4320 6.3724 0
M  V30 43 Pb -5.2717 1.0305 6.0294 0
M  V30 44 Pb -4.2496 0.9493 6.9922 0
M  V30 45 Pb -4.5558 2.2367 7.4489 0
M  V30 46 Ag 1.4945 -3.5654 2.4684 0
M  V30 47 Fe 3.1192 -3.8911 0.7633 0
M  V30 48 Ag 4.7238 -4.2759 -0.9484 0
M  V30 49 Ag 1.3306 -1.1262 3.1495 0
M  V30 50 Fe 0.8209 0.9928 2.1952 0
M  V30 51 Ag 0.2046 3.0847 1.2443 0
M  V30 52 Ag 7.8569 1.3062 -2.6051 0
M  V30 53 Fe 7.5631 -0.5797 -1.2193 0
M  V30 54 Ag 6.8151 -2.7711 -0.7702 0
M  V30 55 Ag -1.6395 2.9281 -0.4688 0
M  V30 56 Fe -1.2072 2.0088 -2.6152 0
M  V30 57 Ag -0.6867 1.1455 -4.7653 0
M  V30 58 Ag -2.5926 -5.1980 0.8239 0
M  V30 59 Fe -1.5849 -5.2559 -1.3209 0
M  V30 60 Ag -0.7253 -5.0749 -3.5225 0
M  V30 61 Ag 6.4836 1.0152 -5.7591 0
M  V30 62 Fe 4.2585 0.9177 -6.5771 0
M  V30 63 Ag 1.9286 0.8854 -7.0241 0
M  V30 64 Ag 5.1143 -4.2736 -3.3808 0
M  V30 65 Fe 2.9905 -4.4198 -4.4350 0
M  V30 66 Ag 0.7975 -4.4846 -5.3458 0
M  V30 67 Ag 6.1170 2.5491 -4.1186 0
M  V30 68 Fe 3.7986 2.5782 -4.6348 0
M  V30 69 Ag 1.5319 2.2549 -5.2678 0
M  V30 70 Ag -0.1676 -1.9738 5.0917 0
M  V30 71 Fe -1.9200 -0.7615 6.1370 0
M  V30 72 Ag -3.6862 0.4773 7.1262 0
M  V30 73 Ag -4.2149 -3.7052 0.1703 0
M  V30 74 Fe -3.4067 -3.6153 -2.0639 0
M  V30 75 Ag -2.3770 -3.6287 -4.2068 0
M  V30 76 Ag -4.7718 -3.1061 2.5706 0
M  V30 77 Fe -5.1518 -1.2856 4.0511 0
M  V30 78 Ag -5.5370 0.5345 5.5309 0
M  V30 79 Ag -3.4855 6.7609 5.8193 0
M  V30 80 Fe -3.7049 4.9896 7.3512 0
M  V30 81 Ag -4.2877 2.7735 7.8823 0
M  V30 82 Ba -2.3217 7.0698 3.6062 0
M  V30 83 Ga -1.4728 6.2925 2.6819 0
M  V30 84 Ba -0.6983 5.4517 1.7477 0
M  V30 85 Ba -4.2844 6.3095 2.4716 0
M  V30 86 Ga -3.4939 5.6418 1.4225 0
M  V30 87 Ba -2.6331 4.9513 0.4460 0
M  V30 88 Ba -0.3754 -0.1887 -6.8851 0
M  V30 89 Ga -0.7241 -1.5923 -6.5946 0
M  V30 90 Ba -1.0724 -2.9959 -6.3035 0
M  V30 91 Ba -5.3004 5.6563 4.7496 0
M  V30 92 Ga -5.5262 4.3404 5.4251 0
M  V30 93 Ba -5.8282 3.0394 6.0996 0
M  V30 94 Ba -2.9029 -4.8265 3.1957 0
M  V30 95 Ga -1.5800 -4.4736 3.7442 0
M  V30 96 Ba -0.2514 -4.0451 4.2204 0
M  V30 97 Ba 8.0021 -0.3417 -4.2527 0
M  V30 98 Ga 7.5937 -1.6371 -3.6396 0
M  V30 99 Ba 7.2300 -2.9568 -3.0508 0
M  V30 END ATOM
M  V30 BEGIN BOND
M  V30 1 1 1 2
M  V30 2 1 1 3
M  V30 3 1 1 4
M  V30 4 1 1 5
M  V30 5 1 6 7
M  V30 6 1 6 8
M  V30 7 1 6 9
M  V30 8 1 6 10
M  V30 9 1 11 12
M  V30 10 1 11 13
M  V30 11 1 11 14
M  V30 12 1 11 15
M  V30 13 1 16 17
M  V30 14 1 16 18
M  V30 15 1 16 19
M  V30 16 1 16 20
M  V30 17 1 21 22
M  V30 18 1 21 23
M  V30 19 1 21 24
M  V30 20 1 21 25
M  V30 21 1 26 27
M  V30 22 1 26 28
M  V30 23 1 26 29
M  V30 24 1 26 30
M  V30 25 1 31 32
M  V30 26 1 31 33
M  V30 27 1 31 34
M  V30 28 1 31 35
M  V30 29 1 36 37
M  V30 30 1 36 38
M  V30 31 1 36 39
M  V30 32 1 36 40
M  V30 33 1 41 42
M  V30 34 1 41 43
M  V30 35 1 41 44
M  V30 36 1 41 45
M  V30 37 1 46 47
M  V30 38 1 47 48
M  V30 39 1 49 50
M  V30 40 1 50 51
M  V30 41 1 52 53
M  V30 42 1 53 54
M  V30 43 1 55 56
M  V30 44 1 56 57
M  V30 45 1 58 59
M  V30 46 1 59 60
M  V30 47 1 61 62
M  V30 48 1 62 63
M  V30 49 1 64 65
M  V30 50 1 65 66
M  V30 51 1 67 68
M  V30 52 1 68 69
M  V30 53 1 70 71
M  V30 54 1 71 72
M  V30 55 1 73 74
M  V30 56 1 74 75
M  V30 57 1 76 77
M  V30 58 1 77 78
M  V30 59 1 79 80
M  V30 60 1 80 81
M  V30 61 1 82 83
M  V30 62 1 83 84
M  V30 63 1 85 86
M  V30 64 1 86 87
M  V30 65 1 88 89
M  V30 66 1 89 90
M  V30 67 1 91 92
M  V30 68 1 92 93
M  V30 69 1 94 95
M  V30 70 1 95 96
M  V30 71 1 97 98
M  V30 72 1 98 99
M  V30 73 1 2 94
M  V30 74 1 3 76
M  V30 75 1 4 58
M  V30 76 1 5 73
M  V30 77 1 7 49
M  V30 78 1 8 46
M  V30 79 1 9 96
M  V30 80 1 10 70
M  V30 81 1 12 79
M  V30 82 1 13 85
M  V30 83 1 14 91
M  V30 84 1 15 82
M  V30 85 1 17 84
M  V30 86 1 18 51
M  V30 87 1 19 55
M  V30 88 1 20 87
M  V30 89 1 22 97
M  V30 90 1 23 61
M  V30 91 1 24 52
M  V30 92 1 25 67
M  V30 93 1 27 69
M  V30 94 1 28 57
M  V30 95 1 29 88
M  V30 96 1 30 63
M  V30 97 1 32 99
M  V30 98 1 33 54
M  V30 99 1 34 64
M  V30 100 1 35 48
M  V30 101 1 37 90
M  V30 102 1 38 66
M  V30 103 1 39 75
M  V30 104 1 40 60
M  V30 105 1 42 93
M  V30 106 1 43 78
M  V30 107 1 44 72
M  V30 108 1 45 81
M  V30 END BOND
M  V30 END CTAB
M  END

$$$$
