
     RDKit          3D

  0  0  0  0  0  0  0  0  0  0999 V3000
M  V30 BEGIN CTAB
M  V30 COUNTS 99 108 0 0 0
M  V30 BEGIN ATOM
M  V30 1 Pd -2.0370 -3.9463 3.4891 0
M  V30 2 Pb -1.8094 -2.9734 3.4979 0
M  V30 3 Pb -1.0838 -4.1854 3.3185 0
M  V30 4 Pb -2.2459 -4.9173 3.3592 0
M  V30 5 Pb -2.9981 -3.6811 3.5568 0
M  V30 6 Pd -0.0708 -7.4818 -1.9324 0
M  V30 7 Pb 0.2272 -6.7830 -2.6007 0
M  V30 8 Pb -0.4990 -7.9800 -1.1789 0
M  V30 9 Pb 0.5921 -7.1430 -1.2692 0
M  V30 10 Pb -0.8093 -7.7434 -2.5469 0
M  V30 11 Pd 1.3324 1.9853 4.8318 0
M  V30 12 Pb 2.2247 2.3671 4.6062 0
M  V30 13 Pb 0.4264 1.5845 4.9745 0
M  V30 14 Pb 0.9424 2.8778 4.6097 0
M  V30 15 Pb 1.7554 1.0905 4.9623 0
M  V30 16 Pd 0.2395 6.8225 -1.0636 0
M  V30 17 Pb 0.1521 7.0883 -2.0218 0
M  V30 18 Pb 1.2230 6.9947 -1.1168 0
M  V30 19 Pb -0.6823 6.4174 -1.1067 0
M  V30 20 Pb 0.2732 6.6015 -0.0871 0
M  V30 21 Pd 1.7774 -0.8135 1.0542 0
M  V30 22 Pb 2.6528 -0.8359 0.5726 0
M  V30 23 Pb 1.3635 -0.5000 0.2000 0
M  V30 24 Pb 2.1961 -1.1009 1.9142 0
M  V30 25 Pb 0.9202 -0.7109 1.5617 0
M  V30 26 Pd -1.7928 -2.2632 -3.2056 0
M  V30 27 Pb -1.0669 -2.9299 -3.4555 0
M  V30 28 Pb -2.5162 -1.6447 -2.8985 0
M  V30 29 Pb -2.4651 -2.8990 -3.5740 0
M  V30 30 Pb -1.1257 -1.5903 -2.8854 0
M  V30 31 Pd 4.1841 3.1381 -1.5437 0
M  V30 32 Pb 4.3901 2.1694 -1.3826 0
M  V30 33 Pb 3.7892 2.8572 -2.4225 0
M  V30 34 Pb 4.5328 3.3479 -0.6338 0
M  V30 35 Pb 4.0191 4.1253 -1.6694 0
M  V30 36 Pd -2.9084 0.1203 1.6127 0
M  V30 37 Pb -2.0574 0.5069 1.2552 0
M  V30 38 Pb -2.5769 0.2064 2.5575 0
M  V30 39 Pb -3.7068 -0.3596 1.9778 0
M  V30 40 Pb -3.2815 0.0670 0.6825 0
M  V30 41 Pd -0.7256 2.2610 -3.1184 0
M  V30 42 Pb -1.4235 2.8400 -2.6776 0
M  V30 43 Pb -0.9515 2.6649 -4.0035 0
M  V30 44 Pb 0.1037 1.8885 -3.5335 0
M  V30 45 Pb -0.4503 1.9350 -2.2132 0
M  V30 46 Ag 0.7146 3.5545 4.3822 0
M  V30 47 Fe 0.4612 5.0174 2.5272 0
M  V30 48 Ag 0.2260 6.4533 0.6487 0
M  V30 49 Ag -1.4081 -7.7280 -2.9823 0
M  V30 50 Fe -2.5556 -5.8008 -3.7022 0
M  V30 51 Ag -2.8645 -3.4683 -3.8347 0
M  V30 52 Ag -0.4121 -4.4117 3.0836 0
M  V30 53 Fe 0.5283 -5.6112 1.2690 0
M  V30 54 Ag 0.9772 -6.8459 -0.7032 0
M  V30 55 Ag -2.3071 -5.6405 3.1628 0
M  V30 56 Fe -1.6739 -7.1068 1.4030 0
M  V30 57 Ag -0.8577 -8.1829 -0.5522 0
M  V30 58 Ag 2.8606 2.6538 4.3420 0
M  V30 59 Fe 3.9506 3.1297 2.2925 0
M  V30 60 Ag 4.7282 3.4571 0.0781 0
M  V30 61 Ag 0.0191 7.1448 -2.7512 0
M  V30 62 Fe -0.5981 5.4496 -4.2619 0
M  V30 63 Ag -1.0258 3.1557 -4.5542 0
M  V30 64 Ba -1.3929 0.7407 0.9953 0
M  V30 65 Ga -0.8378 1.2435 -0.2768 0
M  V30 66 Ba -0.2255 1.7493 -1.5212 0
M  V30 67 Ba 3.4974 2.5341 -3.0387 0
M  V30 68 Ga 2.1409 2.1256 -3.4651 0
M  V30 69 Ba 0.7664 1.7405 -3.8536 0
M  V30 70 Ba -1.3303 6.0273 -1.1727 0
M  V30 71 Ga -1.6366 4.6889 -1.7500 0
M  V30 72 Ba -1.8819 3.3444 -2.3421 0
M  V30 73 Ba 1.1073 -0.2434 -0.4562 0
M  V30 74 Ga 0.2101 -0.6828 -1.5414 0
M  V30 75 Ba -0.6657 -1.0366 -2.6743 0
M  V30 76 Ba -3.6882 -3.3899 3.5393 0
M  V30 77 Ga -4.0693 -2.0980 2.9387 0
M  V30 78 Ba -4.2410 -0.7853 2.2888 0
M  V30 79 Ba 0.4144 -6.2098 -3.0685 0
M  V30 80 Ga -0.0841 -4.8269 -3.3398 0
M  V30 81 Ba -0.5295 -3.4368 -3.6608 0
M  V30 82 Ba -3.0468 -1.1843 -2.6352 0
M  V30 83 Ga -3.3077 -0.5702 -1.3167 0
M  V30 84 Ba -3.5866 0.0537 -0.0064 0
M  V30 85 Ba 3.2957 -0.7963 0.1890 0
M  V30 86 Ga 3.9398 0.3161 -0.5388 0
M  V30 87 Ba 4.5613 1.4461 -1.2594 0
M  V30 88 Ba 2.0906 0.4217 4.9723 0
M  V30 89 Ga 2.3174 -0.4869 3.8366 0
M  V30 90 Ba 2.4543 -1.2684 2.5966 0
M  V30 91 Ba -1.6653 -2.2398 3.4443 0
M  V30 92 Ga -0.6686 -1.4302 2.7166 0
M  V30 93 Ba 0.3169 -0.6003 1.9963 0
M  V30 94 Ba 1.9632 7.0250 -1.2432 0
M  V30 95 Ga 2.9624 5.9505 -1.4606 0
M  V30 96 Ba 3.9670 4.8827 -1.6855 0
M  V30 97 Ba -0.2464 1.2618 5.0594 0
M  V30 98 Ga -1.3025 0.7737 4.1461 0
M  V30 99 Ba -2.3943 0.2655 3.2875 0
M  V30 END ATOM
M  V30 BEGIN BOND
M  V30 1 1 1 2
M  V30 2 1 1 3
M  V30 3 1 1 4
M  V30 4 1 1 5
M  V30 5 1 6 7
M  V30 6 1 6 8
M  V30 7 1 6 9
M  V30 8 1 6 10
M  V30 9 1 11 12
M  V30 10 1 11 13
M  V30 11 1 11 14
M  V30 12 1 11 15
M  V30 13 1 16 17
M  V30 14 1 16 18
M  V30 15 1 16 19
M  V30 16 1 16 20
M  V30 17 1 21 22
M  V30 18 1 21 23
M  V30 19 1 21 24
M  V30 20 1 21 25
M  V30 21 1 26 27
M  V30 22 1 26 28
M  V30 23 1 26 29
M  V30 24 1 26 30
M  V30 25 1 31 32
M  V30 26 1 31 33
M  V30 27 1 31 34
M  V30 28 1 31 35
M  V30 29 1 36 37
M  V30 30 1 36 38
M  V30 31 1 36 39
M  V30 32 1 36 40
M  V30 33 1 41 42
M  V30 34 1 41 43
M  V30 35 1 41 44
M  V30 36 1 41 45
M  V30 37 1 46 47
M  V30 38 1 47 48
M  V30 39 1 49 50
M  V30 40 1 50 51
M  V30 41 1 52 53
M  V30 42 1 53 54
M  V30 43 1 55 56
M  V30 44 1 56 57
M  V30 45 1 58 59
M  V30 46 1 59 60
M  V30 47 1 61 62
M  V30 48 1 62 63
M  V30 49 1 64 65
M  V30 50 1 65 66
M  V30 51 1 67 68
M  V30 52 1 68 69
M  V30 53 1 70 71
M  V30 54 1 71 72
M  V30 55 1 73 74
M  V30 56 1 74 75
M  V30 57 1 76 77
M  V30 58 1 77 78
M  V30 59 1 79 80
M  V30 60 1 80 81
M  V30 61 1 82 83
M  V30 62 1 83 84
M  V30 63 1 85 86
M  V30 64 1 86 87
M  V30 65 1 88 89
M  V30 66 1 89 90
M  V30 67 1 91 92
M  V30 68 1 92 93
M  V30 69 1 94 95
M  V30 70 1 95 96
M  V30 71 1 97 98
M  V30 72 1 98 99
M  V30 73 1 2 91
M  V30 74 1 3 52
M  V30 75 1 4 55
M  V30 76 1 5 76
M  V30 77 1 7 79
M  V30 78 1 8 57
M  V30 79 1 9 54
M  V30 80 1 10 49
M  V30 81 1 12 58
M  V30 82 1 13 97
M  V30 83 1 14 46
M  V30 84 1 15 88
M  V30 85 1 17 61
M  V30 86 1 18 94
M  V30 87 1 19 70
M  V30 88 1 20 48
M  V30 89 1 22 85
M  V30 90 1 23 73
M  V30 91 1 24 90
M  V30 92 1 25 93
M  V30 93 1 27 81
M  V30 94 1 28 82
M  V30 95 1 29 51
M  V30 96 1 30 75
M  V30 97 1 32 87
M  V30 98 1 33 67
M  V30 99 1 34 60
M  V30 100 1 35 96
M  V30 101 1 37 64
M  V30 102 1 38 99
M  V30 103 1 39 78
M  V30 104 1 40 84
M  V30 105 1 42 72
M  V30 106 1 43 63
M  V30 107 1 44 69
M  V30 108 1 45 66
M  V30 END BOND
M  V30 END CTAB
M  END

$$$$
