
     RDKit          3D

  0  0  0  0  0  0  0  0  0  0999 V3000
M  V30 BEGIN CTAB
M  V30 COUNTS 99 108 0 0 0
M  V30 BEGIN ATOM
M  V30 1 Pd 1.0622 -2.9664 2.7570 0
M  V30 2 Pb 0.5671 -3.6402 2.2040 0
M  V30 3 Pb 1.7762 -3.6452 2.9348 0
M  V30 4 Pb 0.3577 -2.2781 2.5903 0
M  V30 5 Pb 1.5810 -2.2701 3.2524 0
M  V30 6 Pd -2.3523 3.9504 4.5329 0
M  V30 7 Pb -2.6936 4.8224 4.8781 0
M  V30 8 Pb -1.8373 4.4420 3.8210 0
M  V30 9 Pb -2.1241 3.0842 4.0856 0
M  V30 10 Pb -3.0680 3.4709 5.0312 0
M  V30 11 Pd -4.2177 5.0759 -0.2610 0
M  V30 12 Pb -3.7885 4.3576 -0.8086 0
M  V30 13 Pb -3.3250 5.2824 0.1695 0
M  V30 14 Pb -5.1233 4.7769 -0.5651 0
M  V30 15 Pb -4.6214 5.8111 0.2806 0
M  V30 16 Pd -2.9434 -3.1693 -1.1685 0
M  V30 17 Pb -3.4527 -3.0929 -0.3124 0
M  V30 18 Pb -2.4727 -3.2562 -2.0485 0
M  V30 19 Pb -3.6251 -2.5873 -1.6161 0
M  V30 20 Pb -2.2850 -3.7728 -0.7132 0
M  V30 21 Pd 2.3713 2.2847 -3.0787 0
M  V30 22 Pb 3.3676 2.3882 -3.1139 0
M  V30 23 Pb 2.3817 1.6476 -3.8523 0
M  V30 24 Pb 1.3769 2.1925 -3.0205 0
M  V30 25 Pb 2.3602 2.9245 -2.3095 0
M  V30 26 Pd -6.5197 0.3873 0.5696 0
M  V30 27 Pb -6.3375 0.0491 -0.3533 0
M  V30 28 Pb -6.1644 -0.4678 0.9463 0
M  V30 29 Pb -6.8423 1.2557 0.1809 0
M  V30 30 Pb -6.6345 0.7036 1.5115 0
M  V30 31 Pd 5.1715 -4.7325 -0.0897 0
M  V30 32 Pb 5.4435 -4.4267 -0.9996 0
M  V30 33 Pb 5.8770 -4.1406 0.2949 0
M  V30 34 Pb 4.4246 -5.2546 -0.5015 0
M  V30 35 Pb 4.8630 -4.9929 0.8245 0
M  V30 36 Pd 5.5283 2.3977 0.8591 0
M  V30 37 Pb 6.2018 1.6702 0.9742 0
M  V30 38 Pb 4.7985 3.0642 0.7186 0
M  V30 39 Pb 5.1547 2.1457 1.7500 0
M  V30 40 Pb 5.8246 2.5559 -0.0829 0
M  V30 41 Pd 2.1112 -3.2053 -3.9771 0
M  V30 42 Pb 1.1174 -3.2428 -4.0873 0
M  V30 43 Pb 2.0905 -4.0512 -3.4406 0
M  V30 44 Pb 3.1072 -3.2015 -3.9025 0
M  V30 45 Pb 2.1501 -2.3585 -4.5114 0
M  V30 46 Ag -3.4460 3.8325 -1.2203 0
M  V30 47 Fe -1.4215 2.9604 -2.1049 0
M  V30 48 Ag 0.6313 2.1302 -2.9642 0
M  V30 49 Ag 1.9718 -1.7111 3.5632 0
M  V30 50 Fe 3.4175 0.1156 3.1078 0
M  V30 51 Ag 4.8438 1.8632 2.3693 0
M  V30 52 Ag -3.6989 3.1117 5.1997 0
M  V30 53 Fe -5.3129 1.9491 3.9081 0
M  V30 54 Ag -6.6247 0.8923 2.2374 0
M  V30 55 Ag 6.3657 -3.6285 0.5361 0
M  V30 56 Fe 6.6479 -1.2950 0.8551 0
M  V30 57 Ag 6.6347 1.0676 1.0671 0
M  V30 58 Ag -3.0579 5.4677 4.9107 0
M  V30 59 Fe -4.1908 6.4088 3.0721 0
M  V30 60 Ag -4.8083 6.3107 0.7995 0
M  V30 61 Ag -0.1517 -1.7398 2.4819 0
M  V30 62 Fe -1.0585 0.3581 3.1297 0
M  V30 63 Ag -2.0370 2.4468 3.6971 0
M  V30 64 Ba 5.6130 -4.1658 -1.6795 0
M  V30 65 Ga 4.7622 -3.6909 -2.7832 0
M  V30 66 Ba 3.8534 -3.2307 -3.8464 0
M  V30 67 Ba -3.8591 -3.0362 0.3142 0
M  V30 68 Ga -4.8701 -2.0733 0.7870 0
M  V30 69 Ba -5.8781 -1.0965 1.2371 0
M  V30 70 Ba 2.3119 -4.1552 3.0657 0
M  V30 71 Ga 3.4629 -4.6697 2.2993 0
M  V30 72 Ba 4.6058 -5.1635 1.5075 0
M  V30 73 Ba -2.1818 -3.3088 -2.7396 0
M  V30 74 Ga -0.8739 -3.2944 -3.4243 0
M  V30 75 Ba 0.3781 -3.2928 -4.2068 0
M  V30 76 Ba -4.1457 -2.1634 -1.9546 0
M  V30 77 Ga -5.1585 -1.1882 -1.5049 0
M  V30 78 Ba -6.1639 -0.2159 -1.0329 0
M  V30 79 Ba -1.5435 4.8027 3.2214 0
M  V30 80 Ga -2.0947 5.1138 1.8717 0
M  V30 81 Ba -2.6646 5.4151 0.5275 0
M  V30 82 Ba 2.3732 1.1808 -4.4419 0
M  V30 83 Ga 2.2840 -0.2782 -4.6599 0
M  V30 84 Ba 2.1965 -1.7300 -4.9219 0
M  V30 85 Ba 0.2304 -4.1540 1.7695 0
M  V30 86 Ga -0.7999 -4.1718 0.7094 0
M  V30 87 Ba -1.8229 -4.2468 -0.3552 0
M  V30 88 Ba 3.8481 -5.5978 -0.8370 0
M  V30 89 Ga 2.9579 -5.1686 -1.9340 0
M  V30 90 Ba 2.1008 -4.6836 -3.0341 0
M  V30 91 Ba 2.3818 3.4001 -1.7294 0
M  V30 92 Ga 3.2797 3.5024 -0.5649 0
M  V30 93 Ba 4.2274 3.5223 0.5639 0
M  V30 94 Ba 4.1128 2.4910 -3.0982 0
M  V30 95 Ga 5.0816 2.5722 -1.9860 0
M  V30 96 Ba 5.9772 2.6376 -0.8131 0
M  V30 97 Ba -5.8049 4.5072 -0.7307 0
M  V30 98 Ga -6.4500 3.2064 -0.4464 0
M  V30 99 Ba -7.0693 1.8963 -0.1473 0
M  V30 END ATOM
M  V30 BEGIN BOND
M  V30 1 1 1 2
M  V30 2 1 1 3
M  V30 3 1 1 4
M  V30 4 1 1 5
M  V30 5 1 6 7
M  V30 6 1 6 8
M  V30 7 1 6 9
M  V30 8 1 6 10
M  V30 9 1 11 12
M  V30 10 1 11 13
M  V30 11 1 11 14
M  V30 12 1 11 15
M  V30 13 1 16 17
M  V30 14 1 16 18
M  V30 15 1 16 19
M  V30 16 1 16 20
M  V30 17 1 21 22
M  V30 18 1 21 23
M  V30 19 1 21 24
M  V30 20 1 21 25
M  V30 21 1 26 27
M  V30 22 1 26 28
M  V30 23 1 26 29
M  V30 24 1 26 30
M  V30 25 1 31 32
M  V30 26 1 31 33
M  V30 27 1 31 34
M  V30 28 1 31 35
M  V30 29 1 36 37
M  V30 30 1 36 38
M  V30 31 1 36 39
M  V30 32 1 36 40
M  V30 33 1 41 42
M  V30 34 1 41 43
M  V30 35 1 41 44
M  V30 36 1 41 45
M  V30 37 1 46 47
M  V30 38 1 47 48
M  V30 39 1 49 50
M  V30 40 1 50 51
M  V30 41 1 52 53
M  V30 42 1 53 54
M  V30 43 1 55 56
M  V30 44 1 56 57
M  V30 45 1 58 59
M  V30 46 1 59 60
M  V30 47 1 61 62
M  V30 48 1 62 63
M  V30 49 1 64 65
M  V30 50 1 65 66
M  V30 51 1 67 68
M  V30 52 1 68 69
M  V30 53 1 70 71
M  V30 54 1 71 72
M  V30 55 1 73 74
M  V30 56 1 74 75
M  V30 57 1 76 77
M  V30 58 1 77 78
M  V30 59 1 79 80
M  V30 60 1 80 81
M  V30 61 1 82 83
M  V30 62 1 83 84
M  V30 63 1 85 86
M  V30 64 1 86 87
M  V30 65 1 88 89
M  V30 66 1 89 90
M  V30 67 1 91 92
M  V30 68 1 92 93
M  V30 69 1 94 95
M  V30 70 1 95 96
M  V30 71 1 97 98
M  V30 72 1 98 99
M  V30 73 1 2 85
M  V30 74 1 3 70
M  V30 75 1 4 61
M  V30 76 1 5 49
M  V30 77 1 7 58
M  V30 78 1 8 79
M  V30 79 1 9 63
M  V30 80 1 10 52
M  V30 81 1 12 46
M  V30 82 1 13 81
M  V30 83 1 14 97
M  V30 84 1 15 60
M  V30 85 1 17 67
M  V30 86 1 18 73
M  V30 87 1 19 76
M  V30 88 1 20 87
M  V30 89 1 22 94
M  V30 90 1 23 82
M  V30 91 1 24 48
M  V30 92 1 25 91
M  V30 93 1 27 78
M  V30 94 1 28 69
M  V30 95 1 29 99
M  V30 96 1 30 54
M  V30 97 1 32 64
M  V30 98 1 33 55
M  V30 99 1 34 88
M  V30 100 1 35 72
M  V30 101 1 37 57
M  V30 102 1 38 93
M  V30 103 1 39 51
M  V30 104 1 40 96
M  V30 105 1 42 75
M  V30 106 1 43 90
M  V30 107 1 44 66
M  V30 108 1 45 84
M  V30 END BOND
M  V30 END CTAB
M  END

$$$$
