
     RDKit          3D

  0  0  0  0  0  0  0  0  0  0999 V3000
M  V30 BEGIN CTAB
M  V30 COUNTS 99 108 0 0 0
M  V30 BEGIN ATOM
M  V30 1 Pd -0.4029 -6.6774 -0.0843 0
M  V30 2 Pb -0.5031 -6.8756 0.8915 0
M  V30 3 Pb -1.2836 -7.1032 -0.2908 0
M  V30 4 Pb 0.4673 -6.2144 0.0839 0
M  V30 5 Pb -0.2739 -6.4694 -1.0526 0
M  V30 6 Pd 3.8087 -2.1093 -3.9421 0
M  V30 7 Pb 3.7118 -1.6989 -4.8415 0
M  V30 8 Pb 3.8641 -2.5221 -3.0328 0
M  V30 9 Pb 3.1497 -2.8219 -4.1764 0
M  V30 10 Pb 4.4376 -1.3589 -3.6715 0
M  V30 11 Pd -0.0167 0.9400 4.7195 0
M  V30 12 Pb 0.9022 0.9171 4.3191 0
M  V30 13 Pb -0.0421 1.9297 4.5978 0
M  V30 14 Pb -0.9291 0.9891 5.1043 0
M  V30 15 Pb -0.0147 -0.0733 4.8437 0
M  V30 16 Pd 4.7735 3.7651 -3.3465 0
M  V30 17 Pb 5.0793 3.9855 -2.4182 0
M  V30 18 Pb 4.4168 4.6892 -3.4762 0
M  V30 19 Pb 4.5052 3.5514 -4.2789 0
M  V30 20 Pb 5.1095 2.8127 -3.2346 0
M  V30 21 Pd -5.1397 -4.5949 0.0176 0
M  V30 22 Pb -5.4171 -5.0282 0.8746 0
M  V30 23 Pb -5.3518 -3.6835 0.3692 0
M  V30 24 Pb -4.8706 -5.4964 -0.3188 0
M  V30 25 Pb -4.8330 -4.1425 -0.8216 0
M  V30 26 Pd 2.9379 4.5503 1.9907 0
M  V30 27 Pb 3.7702 4.5293 1.4339 0
M  V30 28 Pb 2.1216 4.5920 2.5623 0
M  V30 29 Pb 2.7487 5.4860 1.6940 0
M  V30 30 Pb 3.0987 3.6081 2.2941 0
M  V30 31 Pd 0.1402 6.3043 -2.0374 0
M  V30 32 Pb -0.6692 6.1238 -1.4786 0
M  V30 33 Pb -0.2547 5.7436 -2.7668 0
M  V30 34 Pb 0.5592 6.8244 -1.2947 0
M  V30 35 Pb 0.9492 6.5065 -2.5892 0
M  V30 36 Pd -3.3397 2.2707 -1.8896 0
M  V30 37 Pb -2.8322 2.6996 -2.6393 0
M  V30 38 Pb -3.2892 3.1300 -1.3816 0
M  V30 39 Pb -3.3806 1.3905 -2.3653 0
M  V30 40 Pb -3.8537 1.8345 -1.1508 0
M  V30 41 Pd -2.7501 -4.4953 4.5545 0
M  V30 42 Pb -3.5612 -5.0281 4.3192 0
M  V30 43 Pb -2.1638 -5.2470 4.2475 0
M  V30 44 Pb -1.9368 -3.9117 4.7515 0
M  V30 45 Pb -3.3482 -3.7830 4.8979 0
M  V30 46 Ag -5.4512 -2.9719 0.5833 0
M  V30 47 Fe -4.9067 -0.7190 0.0660 0
M  V30 48 Ag -4.2395 1.4495 -0.6356 0
M  V30 49 Ag 3.6513 -1.2619 -5.4352 0
M  V30 50 Fe 3.8923 1.0695 -5.6631 0
M  V30 51 Ag 4.3189 3.2691 -4.9373 0
M  V30 52 Ag -4.6011 -3.7362 -1.4099 0
M  V30 53 Fe -3.9973 -1.5553 -2.1371 0
M  V30 54 Ag -3.4367 0.6971 -2.6493 0
M  V30 55 Ag -1.6210 0.9117 5.3492 0
M  V30 56 Fe -3.0647 -0.9429 5.4448 0
M  V30 57 Ag -3.7025 -3.1885 5.1550 0
M  V30 58 Ag -0.1198 -6.2792 -1.7600 0
M  V30 59 Fe 1.2077 -4.8653 -3.1275 0
M  V30 60 Ag 2.6349 -3.3561 -4.2747 0
M  V30 61 Ag 1.1115 -5.8338 0.1360 0
M  V30 62 Fe 2.5575 -4.3461 -1.0201 0
M  V30 63 Ag 3.8381 -2.8680 -2.3678 0
M  V30 64 Ba -0.0762 2.6705 4.5043 0
M  V30 65 Ga 0.7169 3.6558 3.7528 0
M  V30 66 Ba 1.5159 4.6339 2.9981 0
M  V30 67 Ba -0.5542 5.2993 -3.2934 0
M  V30 68 Ga -1.5044 4.1689 -3.2556 0
M  V30 69 Ba -2.4561 3.0408 -3.1938 0
M  V30 70 Ba -5.5877 -5.3679 1.5206 0
M  V30 71 Ga -4.9148 -5.4030 2.8311 0
M  V30 72 Ba -4.1841 -5.3871 4.1106 0
M  V30 73 Ba 4.1274 5.3677 -3.6070 0
M  V30 74 Ga 2.8474 6.0261 -3.2877 0
M  V30 75 Ba 1.5687 6.6883 -2.9711 0
M  V30 76 Ba 4.9325 -0.8182 -3.4513 0
M  V30 77 Ga 5.0887 0.6621 -3.3281 0
M  V30 78 Ba 5.4012 2.1109 -3.1429 0
M  V30 79 Ba 2.5686 6.1811 1.4781 0
M  V30 80 Ga 1.7460 6.7128 0.3766 0
M  V30 81 Ba 0.9138 7.1870 -0.7437 0
M  V30 82 Ba 0.0355 -0.8324 4.9626 0
M  V30 83 Ga -0.7167 -2.1267 4.8994 0
M  V30 84 Ba -1.2999 -3.5069 4.9025 0
M  V30 85 Ba 5.3480 4.1427 -1.7337 0
M  V30 86 Ga 4.8392 4.3295 -0.3595 0
M  V30 87 Ba 4.4100 4.5300 1.0397 0
M  V30 88 Ba 1.5905 0.9186 4.0144 0
M  V30 89 Ga 2.3987 1.9086 3.2701 0
M  V30 90 Ba 3.2056 2.8997 2.5258 0
M  V30 91 Ba -1.9512 -7.3881 -0.4789 0
M  V30 92 Ga -3.3083 -6.8131 -0.5142 0
M  V30 93 Ba -4.6390 -6.1785 -0.5250 0
M  V30 94 Ba -1.2838 5.9873 -1.0710 0
M  V30 95 Ga -2.2643 4.8867 -1.0262 0
M  V30 96 Ba -3.2308 3.7733 -1.0013 0
M  V30 97 Ba -0.5483 -7.0264 1.6255 0
M  V30 98 Ga -1.1578 -6.4075 2.8195 0
M  V30 99 Ba -1.7424 -5.8371 4.0495 0
M  V30 END ATOM
M  V30 BEGIN BOND
M  V30 1 1 1 2
M  V30 2 1 1 3
M  V30 3 1 1 4
M  V30 4 1 1 5
M  V30 5 1 6 7
M  V30 6 1 6 8
M  V30 7 1 6 9
M  V30 8 1 6 10
M  V30 9 1 11 12
M  V30 10 1 11 13
M  V30 11 1 11 14
M  V30 12 1 11 15
M  V30 13 1 16 17
M  V30 14 1 16 18
M  V30 15 1 16 19
M  V30 16 1 16 20
M  V30 17 1 21 22
M  V30 18 1 21 23
M  V30 19 1 21 24
M  V30 20 1 21 25
M  V30 21 1 26 27
M  V30 22 1 26 28
M  V30 23 1 26 29
M  V30 24 1 26 30
M  V30 25 1 31 32
M  V30 26 1 31 33
M  V30 27 1 31 34
M  V30 28 1 31 35
M  V30 29 1 36 37
M  V30 30 1 36 38
M  V30 31 1 36 39
M  V30 32 1 36 40
M  V30 33 1 41 42
M  V30 34 1 41 43
M  V30 35 1 41 44
M  V30 36 1 41 45
M  V30 37 1 46 47
M  V30 38 1 47 48
M  V30 39 1 49 50
M  V30 40 1 50 51
M  V30 41 1 52 53
M  V30 42 1 53 54
M  V30 43 1 55 56
M  V30 44 1 56 57
M  V30 45 1 58 59
M  V30 46 1 59 60
M  V30 47 1 61 62
M  V30 48 1 62 63
M  V30 49 1 64 65
M  V30 50 1 65 66
M  V30 51 1 67 68
M  V30 52 1 68 69
M  V30 53 1 70 71
M  V30 54 1 71 72
M  V30 55 1 73 74
M  V30 56 1 74 75
M  V30 57 1 76 77
M  V30 58 1 77 78
M  V30 59 1 79 80
M  V30 60 1 80 81
M  V30 61 1 82 83
M  V30 62 1 83 84
M  V30 63 1 85 86
M  V30 64 1 86 87
M  V30 65 1 88 89
M  V30 66 1 89 90
M  V30 67 1 91 92
M  V30 68 1 92 93
M  V30 69 1 94 95
M  V30 70 1 95 96
M  V30 71 1 97 98
M  V30 72 1 98 99
M  V30 73 1 2 97
M  V30 74 1 3 91
M  V30 75 1 4 61
M  V30 76 1 5 58
M  V30 77 1 7 49
M  V30 78 1 8 63
M  V30 79 1 9 60
M  V30 80 1 10 76
M  V30 81 1 12 88
M  V30 82 1 13 64
M  V30 83 1 14 55
M  V30 84 1 15 82
M  V30 85 1 17 85
M  V30 86 1 18 73
M  V30 87 1 19 51
M  V30 88 1 20 78
M  V30 89 1 22 70
M  V30 90 1 23 46
M  V30 91 1 24 93
M  V30 92 1 25 52
M  V30 93 1 27 87
M  V30 94 1 28 66
M  V30 95 1 29 79
M  V30 96 1 30 90
M  V30 97 1 32 94
M  V30 98 1 33 67
M  V30 99 1 34 81
M  V30 100 1 35 75
M  V30 101 1 37 69
M  V30 102 1 38 96
M  V30 103 1 39 54
M  V30 104 1 40 48
M  V30 105 1 42 72
M  V30 106 1 43 99
M  V30 107 1 44 84
M  V30 108 1 45 57
M  V30 END BOND
M  V30 END CTAB
M  END

$$$$
