
     RDKit          3D

  0  0  0  0  0  0  0  0  0  0999 V3000
M  V30 BEGIN CTAB
M  V30 COUNTS 99 108 0 0 0
M  V30 BEGIN ATOM
M  V30 1 Pd 1.6866 3.7217 -0.1291 0
M  V30 2 Pb 1.8811 3.9113 -1.0876 0
M  V30 3 Pb 1.4495 3.5677 0.8336 0
M  V30 4 Pb 1.2062 4.5963 -0.0840 0
M  V30 5 Pb 2.0792 2.8128 -0.2773 0
M  V30 6 Pd 2.9823 -3.4227 7.4220 0
M  V30 7 Pb 2.4852 -4.2054 7.0520 0
M  V30 8 Pb 3.4457 -2.5476 7.6258 0
M  V30 9 Pb 3.7963 -3.7602 6.9537 0
M  V30 10 Pb 2.1622 -3.0630 7.8590 0
M  V30 11 Pd -2.6855 -1.9739 -6.0537 0
M  V30 12 Pb -1.9239 -1.6023 -6.5812 0
M  V30 13 Pb -2.0729 -2.6091 -5.5787 0
M  V30 14 Pb -3.4469 -2.2962 -5.4976 0
M  V30 15 Pb -3.2826 -1.2908 -6.4790 0
M  V30 16 Pd -5.2641 0.2137 0.2185 0
M  V30 17 Pb -5.5850 -0.5108 -0.3850 0
M  V30 18 Pb -5.6748 0.8889 -0.3905 0
M  V30 19 Pb -4.8192 -0.4860 0.7767 0
M  V30 20 Pb -4.8800 0.9603 0.7640 0
M  V30 21 Pd 0.4035 -5.1109 0.5670 0
M  V30 22 Pb 0.5566 -5.3849 1.5197 0
M  V30 23 Pb 0.2336 -4.9019 -0.4005 0
M  V30 24 Pb -0.4445 -4.6715 0.8687 0
M  V30 25 Pb 1.2834 -5.5019 0.2914 0
M  V30 26 Pd -3.3429 4.7596 -1.5228 0
M  V30 27 Pb -4.1740 4.2617 -1.7638 0
M  V30 28 Pb -3.2940 5.1028 -2.4653 0
M  V30 29 Pb -2.5444 5.3005 -1.2450 0
M  V30 30 Pb -3.4125 4.3892 -0.5927 0
M  V30 31 Pd -1.7267 2.9856 -6.5858 0
M  V30 32 Pb -0.8661 3.3767 -6.2724 0
M  V30 33 Pb -2.2097 3.7633 -6.1729 0
M  V30 34 Pb -2.5801 2.5417 -6.8611 0
M  V30 35 Pb -1.2275 2.2130 -6.9792 0
M  V30 36 Pd 5.3249 -3.1065 0.6728 0
M  V30 37 Pb 4.9643 -3.9693 0.3137 0
M  V30 38 Pb 5.6280 -2.2370 1.0593 0
M  V30 39 Pb 5.7272 -3.5880 1.4469 0
M  V30 40 Pb 4.8470 -2.5694 -0.0166 0
M  V30 41 Pd 2.7613 1.8844 5.4560 0
M  V30 42 Pb 3.2730 1.3154 6.1216 0
M  V30 43 Pb 2.2044 2.3860 4.7910 0
M  V30 44 Pb 3.5276 1.8188 4.8194 0
M  V30 45 Pb 1.9870 1.8736 6.0830 0
M  V30 46 Ag 2.1336 -4.7372 6.6588 0
M  V30 47 Fe 1.3595 -5.2343 4.4676 0
M  V30 48 Ag 0.6357 -5.6075 2.2348 0
M  V30 49 Ag 1.9741 4.0526 -1.8142 0
M  V30 50 Fe 0.9725 3.8990 -3.9562 0
M  V30 51 Ag -0.2305 3.6352 -5.9806 0
M  V30 52 Ag -4.4863 -1.0514 1.1394 0
M  V30 53 Fe -2.7645 -2.6887 1.1477 0
M  V30 54 Ag -1.0473 -4.3309 1.1616 0
M  V30 55 Ag 1.6030 -2.6420 8.1069 0
M  V30 56 Fe 1.0942 -0.3896 7.6289 0
M  V30 57 Ag 1.4559 1.6838 6.5655 0
M  V30 58 Ag -4.0039 -2.4789 -5.0362 0
M  V30 59 Fe -5.0054 -1.8842 -2.9729 0
M  V30 60 Ag -5.7486 -1.0340 -0.8902 0
M  V30 61 Ag 4.3734 -4.0066 6.5473 0
M  V30 62 Fe 5.2983 -4.0438 4.3645 0
M  V30 63 Ag 5.9517 -3.8912 2.0907 0
M  V30 64 Ag 2.3309 2.1482 -0.5238 0
M  V30 65 Fe 3.4062 0.0313 -0.4681 0
M  V30 66 Ag 4.4711 -2.0917 -0.4505 0
M  V30 67 Ag 5.7869 -1.5673 1.3534 0
M  V30 68 Fe 5.0335 0.1301 2.8306 0
M  V30 69 Ag 4.0980 1.6927 4.3519 0
M  V30 70 Ag -1.6099 -3.0677 -5.2028 0
M  V30 71 Fe -0.7661 -3.9057 -3.1425 0
M  V30 72 Ag 0.1525 -4.8152 -1.1456 0
M  V30 73 Ba 1.9520 -5.7635 0.0690 0
M  V30 74 Ga 3.3194 -5.2038 0.0652 0
M  V30 75 Ba 4.6770 -4.6210 0.0731 0
M  V30 76 Ba -5.9479 1.3911 -0.8724 0
M  V30 77 Ga -5.4035 2.6495 -1.4086 0
M  V30 78 Ba -4.8122 3.9000 -1.9123 0
M  V30 79 Ba -3.7068 -0.7454 -6.7761 0
M  V30 80 Ga -3.4872 0.7066 -6.9364 0
M  V30 81 Ba -3.1881 2.1481 -7.0590 0
M  V30 82 Ba 3.7823 -1.8733 7.7358 0
M  V30 83 Ga 3.6880 -0.4991 7.1625 0
M  V30 84 Ba 3.6503 0.8970 6.6378 0
M  V30 85 Ba -1.3766 -1.2658 -6.9646 0
M  V30 86 Ga -1.0824 0.1676 -7.1398 0
M  V30 87 Ba -0.8636 1.6201 -7.2603 0
M  V30 88 Ba -4.5757 1.5471 1.1218 0
M  V30 89 Ga -4.0232 2.8284 0.6320 0
M  V30 90 Ba -3.4809 4.0966 0.0983 0
M  V30 91 Ba 0.8041 5.2279 -0.1107 0
M  V30 92 Ga -0.5820 5.4871 -0.5512 0
M  V30 93 Ba -1.9703 5.7220 -0.9983 0
M  V30 94 Ba 1.1990 3.5457 1.5438 0
M  V30 95 Ga 1.5422 3.1041 2.9120 0
M  V30 96 Ba 1.7219 2.7352 4.3322 0
M  V30 97 Ba -3.3006 5.3500 -3.1779 0
M  V30 98 Ga -2.9081 4.8366 -4.5103 0
M  V30 99 Ba -2.5340 4.3710 -5.8653 0
M  V30 END ATOM
M  V30 BEGIN BOND
M  V30 1 1 1 2
M  V30 2 1 1 3
M  V30 3 1 1 4
M  V30 4 1 1 5
M  V30 5 1 6 7
M  V30 6 1 6 8
M  V30 7 1 6 9
M  V30 8 1 6 10
M  V30 9 1 11 12
M  V30 10 1 11 13
M  V30 11 1 11 14
M  V30 12 1 11 15
M  V30 13 1 16 17
M  V30 14 1 16 18
M  V30 15 1 16 19
M  V30 16 1 16 20
M  V30 17 1 21 22
M  V30 18 1 21 23
M  V30 19 1 21 24
M  V30 20 1 21 25
M  V30 21 1 26 27
M  V30 22 1 26 28
M  V30 23 1 26 29
M  V30 24 1 26 30
M  V30 25 1 31 32
M  V30 26 1 31 33
M  V30 27 1 31 34
M  V30 28 1 31 35
M  V30 29 1 36 37
M  V30 30 1 36 38
M  V30 31 1 36 39
M  V30 32 1 36 40
M  V30 33 1 41 42
M  V30 34 1 41 43
M  V30 35 1 41 44
M  V30 36 1 41 45
M  V30 37 1 46 47
M  V30 38 1 47 48
M  V30 39 1 49 50
M  V30 40 1 50 51
M  V30 41 1 52 53
M  V30 42 1 53 54
M  V30 43 1 55 56
M  V30 44 1 56 57
M  V30 45 1 58 59
M  V30 46 1 59 60
M  V30 47 1 61 62
M  V30 48 1 62 63
M  V30 49 1 64 65
M  V30 50 1 65 66
M  V30 51 1 67 68
M  V30 52 1 68 69
M  V30 53 1 70 71
M  V30 54 1 71 72
M  V30 55 1 73 74
M  V30 56 1 74 75
M  V30 57 1 76 77
M  V30 58 1 77 78
M  V30 59 1 79 80
M  V30 60 1 80 81
M  V30 61 1 82 83
M  V30 62 1 83 84
M  V30 63 1 85 86
M  V30 64 1 86 87
M  V30 65 1 88 89
M  V30 66 1 89 90
M  V30 67 1 91 92
M  V30 68 1 92 93
M  V30 69 1 94 95
M  V30 70 1 95 96
M  V30 71 1 97 98
M  V30 72 1 98 99
M  V30 73 1 2 49
M  V30 74 1 3 94
M  V30 75 1 4 91
M  V30 76 1 5 64
M  V30 77 1 7 46
M  V30 78 1 8 82
M  V30 79 1 9 61
M  V30 80 1 10 55
M  V30 81 1 12 85
M  V30 82 1 13 70
M  V30 83 1 14 58
M  V30 84 1 15 79
M  V30 85 1 17 60
M  V30 86 1 18 76
M  V30 87 1 19 52
M  V30 88 1 20 88
M  V30 89 1 22 48
M  V30 90 1 23 72
M  V30 91 1 24 54
M  V30 92 1 25 73
M  V30 93 1 27 78
M  V30 94 1 28 97
M  V30 95 1 29 93
M  V30 96 1 30 90
M  V30 97 1 32 51
M  V30 98 1 33 99
M  V30 99 1 34 81
M  V30 100 1 35 87
M  V30 101 1 37 75
M  V30 102 1 38 67
M  V30 103 1 39 63
M  V30 104 1 40 66
M  V30 105 1 42 84
M  V30 106 1 43 96
M  V30 107 1 44 69
M  V30 108 1 45 57
M  V30 END BOND
M  V30 END CTAB
M  END

$$$$
