
     RDKit          3D

  0  0  0  0  0  0  0  0  0  0999 V3000
M  V30 BEGIN CTAB
M  V30 COUNTS 99 108 0 0 0
M  V30 BEGIN ATOM
M  V30 1 Pd 2.7159 2.2648 -2.9573 0
M  V30 2 Pb 2.2064 2.7404 -3.6755 0
M  V30 3 Pb 2.5399 1.4096 -3.4458 0
M  V30 4 Pb 2.9281 3.1249 -2.4870 0
M  V30 5 Pb 3.2088 1.7676 -2.2435 0
M  V30 6 Pd -1.0091 -9.2130 -0.6137 0
M  V30 7 Pb -1.5614 -8.9428 0.1718 0
M  V30 8 Pb -0.3689 -9.2839 -1.3901 0
M  V30 9 Pb -0.2289 -9.3197 -0.0066 0
M  V30 10 Pb -1.7432 -9.0048 -1.2543 0
M  V30 11 Pd -3.9307 1.6376 0.9042 0
M  V30 12 Pb -4.0012 2.5986 0.6386 0
M  V30 13 Pb -3.9325 0.6670 1.1537 0
M  V30 14 Pb -4.1329 1.8855 1.8538 0
M  V30 15 Pb -3.7198 1.4034 -0.0477 0
M  V30 16 Pd -1.5572 4.8098 4.5598 0
M  V30 17 Pb -2.3875 4.2509 4.5799 0
M  V30 18 Pb -0.7208 5.3795 4.5032 0
M  V30 19 Pb -1.0264 4.0042 4.3041 0
M  V30 20 Pb -2.0772 5.6359 4.7596 0
M  V30 21 Pd -0.9213 -2.8409 3.0536 0
M  V30 22 Pb -1.2845 -3.7752 3.0535 0
M  V30 23 Pb -1.8043 -2.5308 2.6968 0
M  V30 24 Pb -0.5679 -1.9074 3.0696 0
M  V30 25 Pb -0.0327 -3.1421 3.4063 0
M  V30 26 Pd 1.0788 8.6541 1.2893 0
M  V30 27 Pb 1.2485 8.1952 2.1725 0
M  V30 28 Pb 0.7991 8.9808 0.3912 0
M  V30 29 Pb 1.7612 8.0766 0.8379 0
M  V30 30 Pb 0.3632 9.1870 1.7330 0
M  V30 31 Pd -2.1391 4.4878 -3.2598 0
M  V30 32 Pb -1.4593 4.2853 -3.9635 0
M  V30 33 Pb -1.8802 5.4507 -3.3118 0
M  V30 34 Pb -2.3842 3.5205 -3.1713 0
M  V30 35 Pb -2.7616 4.7035 -2.5090 0
M  V30 36 Pd 3.9865 -4.3190 1.0042 0
M  V30 37 Pb 3.6052 -4.1131 1.9076 0
M  V30 38 Pb 4.3318 -4.5507 0.0908 0
M  V30 39 Pb 3.8134 -5.2830 1.1873 0
M  V30 40 Pb 4.1721 -3.3508 0.8364 0
M  V30 41 Pd 1.8245 -5.5637 -3.9367 0
M  V30 42 Pb 1.7443 -6.5429 -3.6851 0
M  V30 43 Pb 1.8779 -4.6050 -4.2171 0
M  V30 44 Pb 2.7385 -5.4977 -3.5268 0
M  V30 45 Pb 0.9042 -5.6260 -4.3152 0
M  V30 46 Ag -1.8773 -8.6218 0.7691 0
M  V30 47 Fe -1.8106 -6.5771 1.9765 0
M  V30 48 Ag -1.5912 -4.4621 3.0364 0
M  V30 49 Ag -0.6279 3.4118 4.0805 0
M  V30 50 Fe -0.4672 1.0941 3.5973 0
M  V30 51 Ag -0.2757 -1.2194 3.1055 0
M  V30 52 Ag -2.1348 -8.7226 -1.8177 0
M  V30 53 Fe -1.3903 -7.1834 -3.4431 0
M  V30 54 Ag 0.1939 -5.7739 -4.4789 0
M  V30 55 Ag -2.3433 6.3285 4.7857 0
M  V30 56 Fe -1.6046 8.2481 3.6315 0
M  V30 57 Ag -0.2092 9.4281 2.1403 0
M  V30 58 Ag 0.3920 -9.2911 0.4019 0
M  V30 59 Fe 2.1043 -7.7547 0.9638 0
M  V30 60 Ag 3.6484 -5.9965 1.3310 0
M  V30 61 Ag 3.1292 3.7556 -2.1280 0
M  V30 62 Fe 2.6699 5.6904 -0.8247 0
M  V30 63 Ag 2.2513 7.6355 0.4770 0
M  V30 64 Ag 3.5713 1.3935 -1.7043 0
M  V30 65 Fe 3.9449 -0.6176 -0.4978 0
M  V30 66 Ag 4.3217 -2.6265 0.7114 0
M  V30 67 Ag 2.4150 0.7887 -3.8483 0
M  V30 68 Fe 2.1671 -1.5607 -4.0953 0
M  V30 69 Ag 1.9013 -3.8937 -4.4545 0
M  V30 70 Ag 0.5328 9.0816 -0.2975 0
M  V30 71 Fe -0.5765 7.7822 -1.9403 0
M  V30 72 Ag -1.6577 6.1647 -3.2947 0
M  V30 73 Ba 1.8080 3.0502 -4.2317 0
M  V30 74 Ga 0.4492 3.6108 -4.3575 0
M  V30 75 Ba -0.9126 4.1686 -4.4625 0
M  V30 76 Ba 0.6453 -3.3205 3.6796 0
M  V30 77 Ga 1.9702 -3.6617 3.1203 0
M  V30 78 Ba 3.3061 -4.0052 2.5890 0
M  V30 79 Ba -0.0858 5.8028 4.4857 0
M  V30 80 Ga 0.5972 6.8129 3.6289 0
M  V30 81 Ba 1.3436 7.8259 2.8301 0
M  V30 82 Ba -3.5593 1.2402 -0.7648 0
M  V30 83 Ga -3.0667 2.0132 -1.9247 0
M  V30 84 Ba -2.5737 2.7992 -3.0756 0
M  V30 85 Ba 0.1526 -9.2840 -1.9427 0
M  V30 86 Ga 0.8901 -8.2564 -2.7318 0
M  V30 87 Ba 1.6702 -7.2928 -3.5594 0
M  V30 88 Ba -4.0894 3.3100 0.4194 0
M  V30 89 Ga -3.6471 4.0960 -0.7464 0
M  V30 90 Ba -3.1942 4.8649 -1.9194 0
M  V30 91 Ba -4.2843 2.0778 2.5648 0
M  V30 92 Ga -3.6467 2.9489 3.5731 0
M  V30 93 Ba -3.0039 3.8217 4.5767 0
M  V30 94 Ba 4.5880 -4.7387 -0.5925 0
M  V30 95 Ga 3.9906 -5.0846 -1.9017 0
M  V30 96 Ba 3.4261 -5.4348 -3.2243 0
M  V30 97 Ba -3.9947 -0.0619 1.3280 0
M  V30 98 Ga -3.1892 -1.1677 1.8853 0
M  V30 99 Ba -2.4819 -2.3447 2.4301 0
M  V30 END ATOM
M  V30 BEGIN BOND
M  V30 1 1 1 2
M  V30 2 1 1 3
M  V30 3 1 1 4
M  V30 4 1 1 5
M  V30 5 1 6 7
M  V30 6 1 6 8
M  V30 7 1 6 9
M  V30 8 1 6 10
M  V30 9 1 11 12
M  V30 10 1 11 13
M  V30 11 1 11 14
M  V30 12 1 11 15
M  V30 13 1 16 17
M  V30 14 1 16 18
M  V30 15 1 16 19
M  V30 16 1 16 20
M  V30 17 1 21 22
M  V30 18 1 21 23
M  V30 19 1 21 24
M  V30 20 1 21 25
M  V30 21 1 26 27
M  V30 22 1 26 28
M  V30 23 1 26 29
M  V30 24 1 26 30
M  V30 25 1 31 32
M  V30 26 1 31 33
M  V30 27 1 31 34
M  V30 28 1 31 35
M  V30 29 1 36 37
M  V30 30 1 36 38
M  V30 31 1 36 39
M  V30 32 1 36 40
M  V30 33 1 41 42
M  V30 34 1 41 43
M  V30 35 1 41 44
M  V30 36 1 41 45
M  V30 37 1 46 47
M  V30 38 1 47 48
M  V30 39 1 49 50
M  V30 40 1 50 51
M  V30 41 1 52 53
M  V30 42 1 53 54
M  V30 43 1 55 56
M  V30 44 1 56 57
M  V30 45 1 58 59
M  V30 46 1 59 60
M  V30 47 1 61 62
M  V30 48 1 62 63
M  V30 49 1 64 65
M  V30 50 1 65 66
M  V30 51 1 67 68
M  V30 52 1 68 69
M  V30 53 1 70 71
M  V30 54 1 71 72
M  V30 55 1 73 74
M  V30 56 1 74 75
M  V30 57 1 76 77
M  V30 58 1 77 78
M  V30 59 1 79 80
M  V30 60 1 80 81
M  V30 61 1 82 83
M  V30 62 1 83 84
M  V30 63 1 85 86
M  V30 64 1 86 87
M  V30 65 1 88 89
M  V30 66 1 89 90
M  V30 67 1 91 92
M  V30 68 1 92 93
M  V30 69 1 94 95
M  V30 70 1 95 96
M  V30 71 1 97 98
M  V30 72 1 98 99
M  V30 73 1 2 73
M  V30 74 1 3 67
M  V30 75 1 4 61
M  V30 76 1 5 64
M  V30 77 1 7 46
M  V30 78 1 8 85
M  V30 79 1 9 58
M  V30 80 1 10 52
M  V30 81 1 12 88
M  V30 82 1 13 97
M  V30 83 1 14 91
M  V30 84 1 15 82
M  V30 85 1 17 93
M  V30 86 1 18 79
M  V30 87 1 19 49
M  V30 88 1 20 55
M  V30 89 1 22 48
M  V30 90 1 23 99
M  V30 91 1 24 51
M  V30 92 1 25 76
M  V30 93 1 27 81
M  V30 94 1 28 70
M  V30 95 1 29 63
M  V30 96 1 30 57
M  V30 97 1 32 75
M  V30 98 1 33 72
M  V30 99 1 34 84
M  V30 100 1 35 90
M  V30 101 1 37 78
M  V30 102 1 38 94
M  V30 103 1 39 60
M  V30 104 1 40 66
M  V30 105 1 42 87
M  V30 106 1 43 69
M  V30 107 1 44 96
M  V30 108 1 45 54
M  V30 END BOND
M  V30 END CTAB
M  END

$$$$
