
     RDKit          3D

  0  0  0  0  0  0  0  0  0  0999 V3000
M  V30 BEGIN CTAB
M  V30 COUNTS 99 108 0 0 0
M  V30 BEGIN ATOM
M  V30 1 Pd -2.7023 -2.8525 0.4951 0
M  V30 2 Pb -2.1262 -3.5800 0.8599 0
M  V30 3 Pb -1.8805 -2.2857 0.4387 0
M  V30 4 Pb -3.5125 -3.3828 0.7387 0
M  V30 5 Pb -3.2534 -2.1203 0.0887 0
M  V30 6 Pd 4.3533 -0.2326 -6.0127 0
M  V30 7 Pb 4.1225 0.7393 -6.0721 0
M  V30 8 Pb 4.5296 -1.2093 -5.9002 0
M  V30 9 Pb 3.6238 -0.4386 -6.6597 0
M  V30 10 Pb 4.9409 -0.0886 -5.2172 0
M  V30 11 Pd 3.4080 3.5109 1.6253 0
M  V30 12 Pb 3.3490 3.2157 2.5791 0
M  V30 13 Pb 3.4710 3.8096 0.6683 0
M  V30 14 Pb 2.8791 4.3245 1.8570 0
M  V30 15 Pb 3.8796 2.6447 1.4514 0
M  V30 16 Pd -3.6308 4.7096 2.7149 0
M  V30 17 Pb -2.8181 5.2635 2.8813 0
M  V30 18 Pb -3.6460 4.3633 3.6520 0
M  V30 19 Pb -3.5415 4.9506 1.7512 0
M  V30 20 Pb -4.3968 4.0944 2.5304 0
M  V30 21 Pd 0.7985 3.6255 -3.6294 0
M  V30 22 Pb 1.4833 3.4004 -4.3300 0
M  V30 23 Pb 1.5569 3.9195 -3.0376 0
M  V30 24 Pb 0.0981 3.9678 -3.0009 0
M  V30 25 Pb 0.0336 3.3540 -4.2216 0
M  V30 26 Pd -4.7467 -1.9804 4.8319 0
M  V30 27 Pb -4.5197 -1.1564 5.3517 0
M  V30 28 Pb -4.0750 -2.4953 5.3689 0
M  V30 29 Pb -4.9724 -2.7636 4.2478 0
M  V30 30 Pb -5.3338 -1.3987 4.2706 0
M  V30 31 Pd 2.5857 -2.7378 5.0143 0
M  V30 32 Pb 2.3444 -3.5551 4.5010 0
M  V30 33 Pb 1.8371 -2.9735 5.6365 0
M  V30 34 Pb 3.2348 -2.4470 4.3076 0
M  V30 35 Pb 2.7347 -1.8495 5.4424 0
M  V30 36 Pd -2.5693 -0.6633 -4.3288 0
M  V30 37 Pb -2.5773 0.2836 -4.6553 0
M  V30 38 Pb -2.4728 -1.5922 -3.9717 0
M  V30 39 Pb -1.9977 -0.8770 -5.1212 0
M  V30 40 Pb -3.1317 -0.4451 -3.5283 0
M  V30 41 Pd 2.5864 -3.5347 -0.6002 0
M  V30 42 Pb 3.0735 -4.0960 -1.2637 0
M  V30 43 Pb 2.0613 -2.8535 -0.0935 0
M  V30 44 Pb 1.7324 -4.0098 -0.8008 0
M  V30 45 Pb 3.4012 -2.9555 -0.5590 0
M  V30 46 Ag -1.6410 -4.0769 1.1340 0
M  V30 47 Fe 0.2273 -4.2996 2.5731 0
M  V30 48 Ag 2.0368 -4.0914 4.0869 0
M  V30 49 Ag -3.3946 5.0971 1.0327 0
M  V30 50 Fe -1.9260 4.6661 -0.7838 0
M  V30 51 Ag -0.4819 4.2666 -2.6269 0
M  V30 52 Ag -3.6648 3.9902 4.3014 0
M  V30 53 Fe -3.9928 1.7962 5.1483 0
M  V30 54 Ag -4.3657 -0.4917 5.6637 0
M  V30 55 Ag 4.1800 1.9555 1.4352 0
M  V30 56 Fe 4.0317 -0.1598 2.5121 0
M  V30 57 Ag 3.6591 -2.1488 3.7617 0
M  V30 58 Ag 5.2626 -0.1016 -4.5404 0
M  V30 59 Fe 4.8331 -1.1880 -2.4728 0
M  V30 60 Ag 3.9759 -2.4881 -0.6795 0
M  V30 61 Ag 4.6223 -1.9271 -5.7115 0
M  V30 62 Fe 4.1461 -3.3836 -3.9034 0
M  V30 63 Ag 3.4320 -4.3554 -1.8636 0
M  V30 64 Ag 3.3176 2.9458 3.2781 0
M  V30 65 Fe 3.0881 0.9869 4.5983 0
M  V30 66 Ag 2.8334 -1.1336 5.6327 0
M  V30 67 Ag -4.9250 3.5689 2.4493 0
M  V30 68 Fe -5.4617 1.3409 3.0686 0
M  V30 69 Ag -5.6922 -0.8856 3.8591 0
M  V30 70 Ag 2.4257 4.8771 2.0758 0
M  V30 71 Fe 0.1599 5.3981 2.5448 0
M  V30 72 Ag -2.1688 5.6303 2.9297 0
M  V30 73 Ag 2.9913 -0.6176 -7.0138 0
M  V30 74 Fe 0.6820 -0.8459 -6.5184 0
M  V30 75 Ag -1.5452 -0.9809 -5.7103 0
M  V30 76 Ag -2.3395 -2.2554 -3.6489 0
M  V30 77 Fe -0.7449 -3.4234 -2.3356 0
M  V30 78 Ag 1.0676 -4.2483 -1.0455 0
M  V30 79 Ag -3.5174 -2.8027 5.7702 0
M  V30 80 Fe -1.1608 -3.0419 5.9807 0
M  V30 81 Ag 1.2138 -3.1659 6.0105 0
M  V30 82 Ba 3.9217 1.4608 -6.1276 0
M  V30 83 Ga 2.9505 2.3571 -5.4629 0
M  V30 84 Ba 2.0125 3.3318 -4.8648 0
M  V30 85 Ba -0.5823 3.1976 -4.6292 0
M  V30 86 Ga -1.5442 2.0820 -4.7725 0
M  V30 87 Ba -2.5185 0.9797 -4.9341 0
M  V30 88 Ba -4.0814 -3.7630 1.0436 0
M  V30 89 Ga -4.6642 -3.5836 2.3887 0
M  V30 90 Ba -5.1563 -3.3000 3.7523 0
M  V30 91 Ba -3.6428 -1.5640 -0.2362 0
M  V30 92 Ga -3.6065 -0.9302 -1.5717 0
M  V30 93 Ba -3.5482 -0.3153 -2.9152 0
M  V30 94 Ba -1.2584 -1.8722 0.5138 0
M  V30 95 Ga 0.1917 -2.0882 0.3494 0
M  V30 96 Ba 1.6426 -2.2983 0.1849 0
M  V30 97 Ba 3.5386 4.0724 -0.0356 0
M  V30 98 Ga 2.8001 4.0730 -1.3198 0
M  V30 99 Ba 2.1668 4.1519 -2.6565 0
M  V30 END ATOM
M  V30 BEGIN BOND
M  V30 1 1 1 2
M  V30 2 1 1 3
M  V30 3 1 1 4
M  V30 4 1 1 5
M  V30 5 1 6 7
M  V30 6 1 6 8
M  V30 7 1 6 9
M  V30 8 1 6 10
M  V30 9 1 11 12
M  V30 10 1 11 13
M  V30 11 1 11 14
M  V30 12 1 11 15
M  V30 13 1 16 17
M  V30 14 1 16 18
M  V30 15 1 16 19
M  V30 16 1 16 20
M  V30 17 1 21 22
M  V30 18 1 21 23
M  V30 19 1 21 24
M  V30 20 1 21 25
M  V30 21 1 26 27
M  V30 22 1 26 28
M  V30 23 1 26 29
M  V30 24 1 26 30
M  V30 25 1 31 32
M  V30 26 1 31 33
M  V30 27 1 31 34
M  V30 28 1 31 35
M  V30 29 1 36 37
M  V30 30 1 36 38
M  V30 31 1 36 39
M  V30 32 1 36 40
M  V30 33 1 41 42
M  V30 34 1 41 43
M  V30 35 1 41 44
M  V30 36 1 41 45
M  V30 37 1 46 47
M  V30 38 1 47 48
M  V30 39 1 49 50
M  V30 40 1 50 51
M  V30 41 1 52 53
M  V30 42 1 53 54
M  V30 43 1 55 56
M  V30 44 1 56 57
M  V30 45 1 58 59
M  V30 46 1 59 60
M  V30 47 1 61 62
M  V30 48 1 62 63
M  V30 49 1 64 65
M  V30 50 1 65 66
M  V30 51 1 67 68
M  V30 52 1 68 69
M  V30 53 1 70 71
M  V30 54 1 71 72
M  V30 55 1 73 74
M  V30 56 1 74 75
M  V30 57 1 76 77
M  V30 58 1 77 78
M  V30 59 1 79 80
M  V30 60 1 80 81
M  V30 61 1 82 83
M  V30 62 1 83 84
M  V30 63 1 85 86
M  V30 64 1 86 87
M  V30 65 1 88 89
M  V30 66 1 89 90
M  V30 67 1 91 92
M  V30 68 1 92 93
M  V30 69 1 94 95
M  V30 70 1 95 96
M  V30 71 1 97 98
M  V30 72 1 98 99
M  V30 73 1 2 46
M  V30 74 1 3 94
M  V30 75 1 4 88
M  V30 76 1 5 91
M  V30 77 1 7 82
M  V30 78 1 8 61
M  V30 79 1 9 73
M  V30 80 1 10 58
M  V30 81 1 12 64
M  V30 82 1 13 97
M  V30 83 1 14 70
M  V30 84 1 15 55
M  V30 85 1 17 72
M  V30 86 1 18 52
M  V30 87 1 19 49
M  V30 88 1 20 67
M  V30 89 1 22 84
M  V30 90 1 23 99
M  V30 91 1 24 51
M  V30 92 1 25 85
M  V30 93 1 27 54
M  V30 94 1 28 79
M  V30 95 1 29 90
M  V30 96 1 30 69
M  V30 97 1 32 48
M  V30 98 1 33 81
M  V30 99 1 34 57
M  V30 100 1 35 66
M  V30 101 1 37 87
M  V30 102 1 38 76
M  V30 103 1 39 75
M  V30 104 1 40 93
M  V30 105 1 42 63
M  V30 106 1 43 96
M  V30 107 1 44 78
M  V30 108 1 45 60
M  V30 END BOND
M  V30 END CTAB
M  END

$$$$
