
     RDKit          3D

  0  0  0  0  0  0  0  0  0  0999 V3000
M  V30 BEGIN CTAB
M  V30 COUNTS 99 108 0 0 0
M  V30 BEGIN ATOM
M  V30 1 Pd -1.2486 -1.4913 5.0144 0
M  V30 2 Pb -1.1908 -2.2937 4.4213 0
M  V30 3 Pb -2.2225 -1.6851 5.0746 0
M  V30 4 Pb -0.2613 -1.3084 4.9721 0
M  V30 5 Pb -1.4165 -0.6553 5.5382 0
M  V30 6 Pd 6.1747 0.0315 2.1869 0
M  V30 7 Pb 5.9631 1.0070 2.0863 0
M  V30 8 Pb 7.0230 0.1910 1.6930 0
M  V30 9 Pb 5.3716 -0.1376 2.7679 0
M  V30 10 Pb 6.3946 -0.9384 2.1110 0
M  V30 11 Pd 6.6806 2.1473 -2.2218 0
M  V30 12 Pb 5.9077 2.5067 -2.7415 0
M  V30 13 Pb 7.4633 1.8070 -1.7154 0
M  V30 14 Pb 6.8966 1.4948 -2.9469 0
M  V30 15 Pb 6.4084 2.6719 -1.4085 0
M  V30 16 Pd -0.2473 -3.6987 -1.9936 0
M  V30 17 Pb 0.4976 -3.6680 -1.3371 0
M  V30 18 Pb -1.0108 -3.7719 -2.6408 0
M  V30 19 Pb 0.3547 -3.3130 -2.6990 0
M  V30 20 Pb -0.7710 -4.0678 -1.2303 0
M  V30 21 Pd -0.6282 4.2844 -2.1003 0
M  V30 22 Pb -0.0462 4.6366 -1.3787 0
M  V30 23 Pb -1.1762 3.8643 -2.8209 0
M  V30 24 Pb 0.1722 4.2298 -2.6929 0
M  V30 25 Pb -1.4298 4.3008 -1.4695 0
M  V30 26 Pd 5.0436 -2.5868 -1.9819 0
M  V30 27 Pb 4.3010 -2.4629 -2.6493 0
M  V30 28 Pb 4.3917 -2.9210 -1.3124 0
M  V30 29 Pb 5.6951 -2.1997 -2.6395 0
M  V30 30 Pb 5.7383 -2.7623 -1.2803 0
M  V30 31 Pd -7.3411 -0.2921 1.1492 0
M  V30 32 Pb -7.4070 -1.1472 0.6316 0
M  V30 33 Pb -7.2259 0.5542 1.6735 0
M  V30 34 Pb -7.5057 0.2116 0.3041 0
M  V30 35 Pb -7.1368 -0.7961 1.9812 0
M  V30 36 Pd -3.1914 3.0591 3.2673 0
M  V30 37 Pb -4.1757 2.8545 3.2401 0
M  V30 38 Pb -3.2435 3.4281 2.3177 0
M  V30 39 Pb -3.0838 2.6911 4.1943 0
M  V30 40 Pb -2.2483 3.3585 3.3305 0
M  V30 41 Pd -5.2912 -1.4185 -3.4075 0
M  V30 42 Pb -4.6502 -2.1454 -3.6658 0
M  V30 43 Pb -5.9296 -0.6910 -3.1563 0
M  V30 44 Pb -5.8184 -2.0507 -2.8400 0
M  V30 45 Pb -4.7707 -0.7430 -3.9243 0
M  V30 46 Ag -2.9525 -1.8322 5.0832 0
M  V30 47 Fe -5.0063 -1.5571 3.9384 0
M  V30 48 Ag -6.9162 -1.1367 2.6043 0
M  V30 49 Ag 5.3306 2.7875 -3.1261 0
M  V30 50 Fe 3.0643 3.4875 -3.1654 0
M  V30 51 Ag 0.7906 4.1618 -3.1069 0
M  V30 52 Ag -1.5530 3.4987 -3.3537 0
M  V30 53 Fe -2.9754 1.6775 -3.8893 0
M  V30 54 Ag -4.3998 -0.1841 -4.2535 0
M  V30 55 Ag -1.2836 -2.8639 3.9422 0
M  V30 56 Fe -1.1975 -3.6707 1.7110 0
M  V30 57 Ag -1.0253 -4.3076 -0.5696 0
M  V30 58 Ag 0.4800 -1.1673 4.9883 0
M  V30 59 Fe 2.6092 -0.7189 4.0228 0
M  V30 60 Ag 4.8208 -0.2633 3.2693 0
M  V30 61 Ag 0.3162 4.7965 -0.7560 0
M  V30 62 Fe -0.2323 4.3883 1.4950 0
M  V30 63 Ag -1.5680 3.6431 3.2831 0
M  V30 64 Ba -7.4287 -1.7813 0.2284 0
M  V30 65 Ga -6.8451 -2.1644 -1.0724 0
M  V30 66 Ba -6.2308 -2.4741 -2.3785 0
M  V30 67 Ba 1.0307 -3.6831 -0.8186 0
M  V30 68 Ga 2.4714 -3.4173 -0.7984 0
M  V30 69 Ba 3.9115 -3.1475 -0.7933 0
M  V30 70 Ba -1.5673 -3.8592 -3.1412 0
M  V30 71 Ga -2.8712 -3.2475 -3.4776 0
M  V30 72 Ba -4.1829 -2.6953 -3.8804 0
M  V30 73 Ba -1.6360 -0.0307 5.8934 0
M  V30 74 Ga -2.2788 1.2101 5.4091 0
M  V30 75 Ba -2.9205 2.4348 4.8840 0
M  V30 76 Ba 0.8384 -3.0147 -3.1957 0
M  V30 77 Ga 2.2875 -2.7018 -3.1699 0
M  V30 78 Ba 3.7363 -2.3877 -3.1467 0
M  V30 79 Ba 6.6166 -1.6258 1.9145 0
M  V30 80 Ga 6.4167 -2.3249 0.6283 0
M  V30 81 Ba 6.1678 -2.9466 -0.6889 0
M  V30 82 Ba -7.1338 1.1655 2.1023 0
M  V30 83 Ga -5.9978 1.9468 2.6416 0
M  V30 84 Ba -4.9281 2.7859 3.2269 0
M  V30 85 Ba 7.6602 0.3043 1.3248 0
M  V30 86 Ga 7.9179 0.9121 0.0186 0
M  V30 87 Ba 8.0168 1.5424 -1.2984 0
M  V30 88 Ba 5.8455 1.7295 1.9040 0
M  V30 89 Ga 6.0047 2.4103 0.5956 0
M  V30 90 Ba 6.1957 2.9902 -0.7565 0
M  V30 91 Ba -7.5974 0.5489 -0.3566 0
M  V30 92 Ga -7.0216 0.2344 -1.6753 0
M  V30 93 Ba -6.4044 -0.1456 -2.9576 0
M  V30 94 Ba -2.0598 4.3298 -1.0287 0
M  V30 95 Ga -2.6075 3.9868 0.3228 0
M  V30 96 Ba -3.3248 3.7205 1.6106 0
M  V30 97 Ba 7.0431 0.9284 -3.4157 0
M  V30 98 Ga 6.6196 -0.4842 -3.3250 0
M  V30 99 Ba 6.1455 -1.8724 -3.1472 0
M  V30 END ATOM
M  V30 BEGIN BOND
M  V30 1 1 1 2
M  V30 2 1 1 3
M  V30 3 1 1 4
M  V30 4 1 1 5
M  V30 5 1 6 7
M  V30 6 1 6 8
M  V30 7 1 6 9
M  V30 8 1 6 10
M  V30 9 1 11 12
M  V30 10 1 11 13
M  V30 11 1 11 14
M  V30 12 1 11 15
M  V30 13 1 16 17
M  V30 14 1 16 18
M  V30 15 1 16 19
M  V30 16 1 16 20
M  V30 17 1 21 22
M  V30 18 1 21 23
M  V30 19 1 21 24
M  V30 20 1 21 25
M  V30 21 1 26 27
M  V30 22 1 26 28
M  V30 23 1 26 29
M  V30 24 1 26 30
M  V30 25 1 31 32
M  V30 26 1 31 33
M  V30 27 1 31 34
M  V30 28 1 31 35
M  V30 29 1 36 37
M  V30 30 1 36 38
M  V30 31 1 36 39
M  V30 32 1 36 40
M  V30 33 1 41 42
M  V30 34 1 41 43
M  V30 35 1 41 44
M  V30 36 1 41 45
M  V30 37 1 46 47
M  V30 38 1 47 48
M  V30 39 1 49 50
M  V30 40 1 50 51
M  V30 41 1 52 53
M  V30 42 1 53 54
M  V30 43 1 55 56
M  V30 44 1 56 57
M  V30 45 1 58 59
M  V30 46 1 59 60
M  V30 47 1 61 62
M  V30 48 1 62 63
M  V30 49 1 64 65
M  V30 50 1 65 66
M  V30 51 1 67 68
M  V30 52 1 68 69
M  V30 53 1 70 71
M  V30 54 1 71 72
M  V30 55 1 73 74
M  V30 56 1 74 75
M  V30 57 1 76 77
M  V30 58 1 77 78
M  V30 59 1 79 80
M  V30 60 1 80 81
M  V30 61 1 82 83
M  V30 62 1 83 84
M  V30 63 1 85 86
M  V30 64 1 86 87
M  V30 65 1 88 89
M  V30 66 1 89 90
M  V30 67 1 91 92
M  V30 68 1 92 93
M  V30 69 1 94 95
M  V30 70 1 95 96
M  V30 71 1 97 98
M  V30 72 1 98 99
M  V30 73 1 2 55
M  V30 74 1 3 46
M  V30 75 1 4 58
M  V30 76 1 5 73
M  V30 77 1 7 88
M  V30 78 1 8 85
M  V30 79 1 9 60
M  V30 80 1 10 79
M  V30 81 1 12 49
M  V30 82 1 13 87
M  V30 83 1 14 97
M  V30 84 1 15 90
M  V30 85 1 17 67
M  V30 86 1 18 70
M  V30 87 1 19 76
M  V30 88 1 20 57
M  V30 89 1 22 61
M  V30 90 1 23 52
M  V30 91 1 24 51
M  V30 92 1 25 94
M  V30 93 1 27 78
M  V30 94 1 28 69
M  V30 95 1 29 99
M  V30 96 1 30 81
M  V30 97 1 32 64
M  V30 98 1 33 82
M  V30 99 1 34 91
M  V30 100 1 35 48
M  V30 101 1 37 84
M  V30 102 1 38 96
M  V30 103 1 39 75
M  V30 104 1 40 63
M  V30 105 1 42 72
M  V30 106 1 43 93
M  V30 107 1 44 66
M  V30 108 1 45 54
M  V30 END BOND
M  V30 END CTAB
M  END

$$$$
