
     RDKit          3D

  0  0  0  0  0  0  0  0  0  0999 V3000
M  V30 BEGIN CTAB
M  V30 COUNTS 99 108 0 0 0
M  V30 BEGIN ATOM
M  V30 1 Pd 3.4427 -1.9111 2.9005 0
M  V30 2 Pb 3.0822 -2.7631 2.5200 0
M  V30 3 Pb 4.2073 -1.9968 2.2626 0
M  V30 4 Pb 2.7372 -1.8388 3.6154 0
M  V30 5 Pb 3.8449 -1.0525 3.2211 0
M  V30 6 Pd 2.4744 3.3224 -4.3345 0
M  V30 7 Pb 1.6348 2.7772 -4.2701 0
M  V30 8 Pb 2.9000 2.6187 -4.9042 0
M  V30 9 Pb 2.2392 3.9557 -3.5976 0
M  V30 10 Pb 3.3079 3.8529 -4.4470 0
M  V30 11 Pd -5.5979 -1.5336 -3.2782 0
M  V30 12 Pb -5.4544 -2.4707 -2.9108 0
M  V30 13 Pb -5.7005 -0.6041 -3.6388 0
M  V30 14 Pb -6.2258 -1.3315 -2.5241 0
M  V30 15 Pb -4.9598 -1.7438 -4.0117 0
M  V30 16 Pd -6.0756 0.6272 3.9530 0
M  V30 17 Pb -6.6762 0.3288 3.2109 0
M  V30 18 Pb -5.3928 0.8892 4.6399 0
M  V30 19 Pb -5.9860 1.4982 3.4766 0
M  V30 20 Pb -6.1433 -0.2651 4.3897 0
M  V30 21 Pd -2.8824 2.7510 -2.2497 0
M  V30 22 Pb -2.2259 2.3255 -2.8730 0
M  V30 23 Pb -3.6110 2.6627 -2.9288 0
M  V30 24 Pb -3.5164 3.1588 -1.5972 0
M  V30 25 Pb -2.2017 2.7484 -1.5220 0
M  V30 26 Pd -2.0912 -2.1831 5.4173 0
M  V30 27 Pb -2.2909 -1.2575 5.7469 0
M  V30 28 Pb -1.9701 -3.0940 5.0318 0
M  V30 29 Pb -1.1029 -1.9976 5.4183 0
M  V30 30 Pb -3.0681 -2.3838 5.4642 0
M  V30 31 Pd -1.7759 -5.5936 -1.2312 0
M  V30 32 Pb -0.8280 -5.7112 -0.9438 0
M  V30 33 Pb -1.9937 -5.7739 -0.2754 0
M  V30 34 Pb -1.5213 -5.3963 -2.1723 0
M  V30 35 Pb -2.7424 -5.3897 -1.4678 0
M  V30 36 Pd 4.2433 3.2018 0.8290 0
M  V30 37 Pb 3.2805 3.0066 0.9862 0
M  V30 38 Pb 5.2251 3.3897 0.7062 0
M  V30 39 Pb 3.9126 3.8264 0.1072 0
M  V30 40 Pb 4.4900 2.6309 1.6163 0
M  V30 41 Pd 8.2522 1.3170 -2.1079 0
M  V30 42 Pb 7.9277 0.8693 -2.9428 0
M  V30 43 Pb 8.0975 0.4806 -1.5864 0
M  V30 44 Pb 8.3527 1.8605 -1.2755 0
M  V30 45 Pb 8.3028 2.1643 -2.6236 0
M  V30 46 Ag 2.8857 -3.3890 2.1546 0
M  V30 47 Fe 1.3956 -4.6085 0.7648 0
M  V30 48 Ag -0.1563 -5.7571 -0.6177 0
M  V30 49 Ag -1.7360 2.7057 -0.9398 0
M  V30 50 Fe 0.4089 2.7975 0.0647 0
M  V30 51 Ag 2.5505 2.8894 1.0763 0
M  V30 52 Ag -5.9191 2.1033 3.0445 0
M  V30 53 Fe -4.9876 2.8923 1.0122 0
M  V30 54 Ag -3.9504 3.4268 -1.0516 0
M  V30 55 Ag -4.4226 -1.9963 -4.4556 0
M  V30 56 Fe -2.7111 -3.5755 -4.0897 0
M  V30 57 Ag -1.4528 -5.1507 -2.8681 0
M  V30 58 Ag 3.9732 4.1782 -4.5078 0
M  V30 59 Fe 6.2158 3.7617 -3.8931 0
M  V30 60 Ag 8.1751 2.7849 -3.0073 0
M  V30 61 Ag 3.3620 2.1002 -5.1901 0
M  V30 62 Fe 5.4745 1.1939 -4.5843 0
M  V30 63 Ag 7.5438 0.6470 -3.5497 0
M  V30 64 Ag -6.6829 -1.1935 -1.9433 0
M  V30 65 Fe -6.9380 -0.5461 0.3290 0
M  V30 66 Ag -7.0683 0.1144 2.6081 0
M  V30 67 Ag 4.8117 -2.0660 1.8247 0
M  V30 68 Fe 6.3814 -1.1326 0.3086 0
M  V30 69 Ag 7.9136 -0.1365 -1.2059 0
M  V30 70 Ag -1.9836 -3.7609 4.6959 0
M  V30 71 Fe -2.0223 -4.9032 2.6180 0
M  V30 72 Ag -2.0482 -5.8885 0.4610 0
M  V30 73 Ba 1.0334 2.3244 -4.2980 0
M  V30 74 Ga -0.3452 2.2016 -3.7813 0
M  V30 75 Ba -1.7325 1.9832 -3.3228 0
M  V30 76 Ba -4.8456 1.0404 5.1353 0
M  V30 77 Ga -3.6636 0.2653 5.5745 0
M  V30 78 Ba -2.5048 -0.5689 5.9639 0
M  V30 79 Ba -5.3813 -3.1863 -2.6464 0
M  V30 80 Ga -4.3695 -4.1666 -2.1481 0
M  V30 81 Ba -3.4763 -5.2480 -1.6324 0
M  V30 82 Ba -6.1381 -0.9387 4.7092 0
M  V30 83 Ga -4.9994 -1.7703 5.1254 0
M  V30 84 Ba -3.8007 -2.5302 5.5093 0
M  V30 85 Ba 2.2302 4.4303 -3.0136 0
M  V30 86 Ga 2.8804 4.3551 -1.6799 0
M  V30 87 Ba 3.5314 4.3057 -0.3454 0
M  V30 88 Ba 2.2987 -1.7409 4.2244 0
M  V30 89 Ga 0.9208 -1.8286 4.7623 0
M  V30 90 Ba -0.3675 -1.8440 5.4948 0
M  V30 91 Ba 4.1810 -0.4153 3.4332 0
M  V30 92 Ga 4.4072 0.9100 2.8192 0
M  V30 93 Ba 4.6578 2.2477 2.2430 0
M  V30 94 Ba 5.9770 3.4840 0.7058 0
M  V30 95 Ga 7.1559 2.9154 0.0114 0
M  V30 96 Ba 8.3221 2.3398 -0.6986 0
M  V30 97 Ba -5.7460 0.0938 -3.9160 0
M  V30 98 Ga -4.9802 1.3348 -3.6821 0
M  V30 99 Ba -4.1788 2.5437 -3.4044 0
M  V30 END ATOM
M  V30 BEGIN BOND
M  V30 1 1 1 2
M  V30 2 1 1 3
M  V30 3 1 1 4
M  V30 4 1 1 5
M  V30 5 1 6 7
M  V30 6 1 6 8
M  V30 7 1 6 9
M  V30 8 1 6 10
M  V30 9 1 11 12
M  V30 10 1 11 13
M  V30 11 1 11 14
M  V30 12 1 11 15
M  V30 13 1 16 17
M  V30 14 1 16 18
M  V30 15 1 16 19
M  V30 16 1 16 20
M  V30 17 1 21 22
M  V30 18 1 21 23
M  V30 19 1 21 24
M  V30 20 1 21 25
M  V30 21 1 26 27
M  V30 22 1 26 28
M  V30 23 1 26 29
M  V30 24 1 26 30
M  V30 25 1 31 32
M  V30 26 1 31 33
M  V30 27 1 31 34
M  V30 28 1 31 35
M  V30 29 1 36 37
M  V30 30 1 36 38
M  V30 31 1 36 39
M  V30 32 1 36 40
M  V30 33 1 41 42
M  V30 34 1 41 43
M  V30 35 1 41 44
M  V30 36 1 41 45
M  V30 37 1 46 47
M  V30 38 1 47 48
M  V30 39 1 49 50
M  V30 40 1 50 51
M  V30 41 1 52 53
M  V30 42 1 53 54
M  V30 43 1 55 56
M  V30 44 1 56 57
M  V30 45 1 58 59
M  V30 46 1 59 60
M  V30 47 1 61 62
M  V30 48 1 62 63
M  V30 49 1 64 65
M  V30 50 1 65 66
M  V30 51 1 67 68
M  V30 52 1 68 69
M  V30 53 1 70 71
M  V30 54 1 71 72
M  V30 55 1 73 74
M  V30 56 1 74 75
M  V30 57 1 76 77
M  V30 58 1 77 78
M  V30 59 1 79 80
M  V30 60 1 80 81
M  V30 61 1 82 83
M  V30 62 1 83 84
M  V30 63 1 85 86
M  V30 64 1 86 87
M  V30 65 1 88 89
M  V30 66 1 89 90
M  V30 67 1 91 92
M  V30 68 1 92 93
M  V30 69 1 94 95
M  V30 70 1 95 96
M  V30 71 1 97 98
M  V30 72 1 98 99
M  V30 73 1 2 46
M  V30 74 1 3 67
M  V30 75 1 4 88
M  V30 76 1 5 91
M  V30 77 1 7 73
M  V30 78 1 8 61
M  V30 79 1 9 85
M  V30 80 1 10 58
M  V30 81 1 12 79
M  V30 82 1 13 97
M  V30 83 1 14 64
M  V30 84 1 15 55
M  V30 85 1 17 66
M  V30 86 1 18 76
M  V30 87 1 19 52
M  V30 88 1 20 82
M  V30 89 1 22 75
M  V30 90 1 23 99
M  V30 91 1 24 54
M  V30 92 1 25 49
M  V30 93 1 27 78
M  V30 94 1 28 70
M  V30 95 1 29 90
M  V30 96 1 30 84
M  V30 97 1 32 48
M  V30 98 1 33 72
M  V30 99 1 34 57
M  V30 100 1 35 81
M  V30 101 1 37 51
M  V30 102 1 38 94
M  V30 103 1 39 87
M  V30 104 1 40 93
M  V30 105 1 42 63
M  V30 106 1 43 69
M  V30 107 1 44 96
M  V30 108 1 45 60
M  V30 END BOND
M  V30 END CTAB
M  END

$$$$
