
     RDKit          3D

  0  0  0  0  0  0  0  0  0  0999 V3000
M  V30 BEGIN CTAB
M  V30 COUNTS 99 108 0 0 0
M  V30 BEGIN ATOM
M  V30 1 Pd -1.9918 -4.8687 -2.0930 0
M  V30 2 Pb -1.0942 -5.1893 -1.8066 0
M  V30 3 Pb -1.7090 -4.8903 -3.0698 0
M  V30 4 Pb -2.2097 -4.7049 -1.1225 0
M  V30 5 Pb -2.9264 -4.6847 -2.3766 0
M  V30 6 Pd 3.4362 -0.9165 3.0713 0
M  V30 7 Pb 3.9485 -0.2594 2.4965 0
M  V30 8 Pb 4.3123 -1.2358 3.4236 0
M  V30 9 Pb 2.9498 -1.5945 3.6274 0
M  V30 10 Pb 2.5806 -0.4592 2.8230 0
M  V30 11 Pd -4.4106 -1.1221 -3.3346 0
M  V30 12 Pb -3.9582 -0.2355 -3.2198 0
M  V30 13 Pb -4.5562 -0.4250 -4.0405 0
M  V30 14 Pb -5.0748 -0.7590 -2.6903 0
M  V30 15 Pb -4.5173 -2.0161 -2.8898 0
M  V30 16 Pd 6.0367 4.0928 3.1182 0
M  V30 17 Pb 6.6400 3.4877 3.6333 0
M  V30 18 Pb 5.9651 4.7469 3.8652 0
M  V30 19 Pb 5.4092 4.6750 2.5779 0
M  V30 20 Pb 5.9375 3.3565 2.4400 0
M  V30 21 Pd -2.2283 0.7925 2.6578 0
M  V30 22 Pb -2.1230 1.4608 1.9214 0
M  V30 23 Pb -2.2640 -0.2018 2.8003 0
M  V30 24 Pb -2.3242 1.7537 2.9308 0
M  V30 25 Pb -3.1908 0.7712 2.4061 0
M  V30 26 Pd -1.8916 -1.5885 -6.8027 0
M  V30 27 Pb -1.5325 -2.4858 -6.4932 0
M  V30 28 Pb -1.0082 -1.1401 -6.6532 0
M  V30 29 Pb -2.3397 -0.7093 -6.9416 0
M  V30 30 Pb -2.8007 -1.9870 -6.8556 0
M  V30 31 Pd 1.5582 1.7118 -1.2062 0
M  V30 32 Pb 1.2590 1.7205 -0.2538 0
M  V30 33 Pb 2.0878 0.9136 -0.9423 0
M  V30 34 Pb 1.0076 2.5248 -1.3833 0
M  V30 35 Pb 1.7627 1.5876 -2.1783 0
M  V30 36 Pd 0.4991 5.5589 2.2269 0
M  V30 37 Pb 0.2004 5.3338 1.2965 0
M  V30 38 Pb -0.3950 5.2972 2.5921 0
M  V30 39 Pb 1.4321 5.7499 1.8906 0
M  V30 40 Pb 0.8080 5.8546 3.1279 0
M  V30 41 Pd -0.7821 -4.0397 2.2567 0
M  V30 42 Pb -0.1626 -4.0107 3.0414 0
M  V30 43 Pb -0.2653 -4.7390 1.7726 0
M  V30 44 Pb 0.0916 -3.5690 2.1764 0
M  V30 45 Pb -1.6206 -4.2899 1.7595 0
M  V30 46 Ag 4.9952 -1.2407 3.7155 0
M  V30 47 Fe 6.4044 0.6229 4.0549 0
M  V30 48 Ag 6.9941 2.9066 3.9358 0
M  V30 49 Ag -3.6225 0.3951 -2.9847 0
M  V30 50 Fe -2.7902 1.3277 -0.9631 0
M  V30 51 Ag -2.1109 1.8173 1.2611 0
M  V30 52 Ag 5.6664 5.1959 4.3742 0
M  V30 53 Fe 3.4148 5.9005 4.4628 0
M  V30 54 Ag 1.1749 6.0825 3.7350 0
M  V30 55 Ag -3.5660 -4.5645 -2.7300 0
M  V30 56 Fe -4.0537 -3.5133 -4.7787 0
M  V30 57 Ag -3.4575 -2.2867 -6.6962 0
M  V30 58 Ag -0.3758 -0.7708 -6.4821 0
M  V30 59 Fe 0.8219 0.3533 -4.7638 0
M  V30 60 Ag 1.8470 1.4276 -2.9075 0
M  V30 61 Ag -2.3042 -4.5250 -0.3914 0
M  V30 62 Fe -2.3322 -2.7995 1.2551 0
M  V30 63 Ag -2.3285 -0.9549 2.7667 0
M  V30 64 Ag -5.4615 -0.4984 -2.1124 0
M  V30 65 Fe -4.9501 0.1913 0.0905 0
M  V30 66 Ag -3.8783 0.7494 2.1230 0
M  V30 67 Ag 2.3962 0.3296 -0.6008 0
M  V30 68 Fe 1.7433 -1.5234 0.7211 0
M  V30 69 Ag 0.7421 -3.2579 1.9850 0
M  V30 70 Ag -4.5289 -2.6271 -2.4455 0
M  V30 71 Fe -3.4479 -3.6179 -0.5671 0
M  V30 72 Ag -2.2087 -4.4256 1.3021 0
M  V30 73 Ba -4.5742 0.0807 -4.5974 0
M  V30 74 Ga -3.7298 0.1033 -5.8054 0
M  V30 75 Ba -2.7821 -0.1086 -6.9136 0
M  V30 76 Ba -1.4583 -4.8893 -3.7951 0
M  V30 77 Ga -1.4091 -3.9956 -4.9939 0
M  V30 78 Ba -1.3116 -3.1741 -6.2406 0
M  V30 79 Ba 4.9658 5.1216 2.1484 0
M  V30 80 Ga 3.5341 5.4720 1.9385 0
M  V30 81 Ba 2.1368 5.8951 1.6458 0
M  V30 82 Ba 0.5835 3.1386 -1.4371 0
M  V30 83 Ga 0.2738 4.1813 -0.4397 0
M  V30 84 Ba -0.0123 5.2032 0.5861 0
M  V30 85 Ba -0.4763 -5.4803 -1.5091 0
M  V30 86 Ga -0.0725 -5.4023 -0.1023 0
M  V30 87 Ba 0.1375 -5.1845 1.3318 0
M  V30 88 Ba -2.4368 2.4723 3.1284 0
M  V30 89 Ga -1.7334 3.7656 2.9977 0
M  V30 90 Ba -1.0503 5.0711 2.8803 0
M  V30 91 Ba 2.6063 -2.1224 4.0397 0
M  V30 92 Ga 1.4611 -3.0340 3.8422 0
M  V30 93 Ba 0.3112 -3.9333 3.6180 0
M  V30 94 Ba 4.3550 0.1906 2.0352 0
M  V30 95 Ga 5.0730 1.4932 2.0331 0
M  V30 96 Ba 5.8086 2.7843 1.9617 0
M  V30 97 Ba 1.9743 -0.0349 2.6889 0
M  V30 98 Ga 1.4863 0.7989 1.5728 0
M  V30 99 Ba 1.0101 1.6254 0.4463 0
M  V30 END ATOM
M  V30 BEGIN BOND
M  V30 1 1 1 2
M  V30 2 1 1 3
M  V30 3 1 1 4
M  V30 4 1 1 5
M  V30 5 1 6 7
M  V30 6 1 6 8
M  V30 7 1 6 9
M  V30 8 1 6 10
M  V30 9 1 11 12
M  V30 10 1 11 13
M  V30 11 1 11 14
M  V30 12 1 11 15
M  V30 13 1 16 17
M  V30 14 1 16 18
M  V30 15 1 16 19
M  V30 16 1 16 20
M  V30 17 1 21 22
M  V30 18 1 21 23
M  V30 19 1 21 24
M  V30 20 1 21 25
M  V30 21 1 26 27
M  V30 22 1 26 28
M  V30 23 1 26 29
M  V30 24 1 26 30
M  V30 25 1 31 32
M  V30 26 1 31 33
M  V30 27 1 31 34
M  V30 28 1 31 35
M  V30 29 1 36 37
M  V30 30 1 36 38
M  V30 31 1 36 39
M  V30 32 1 36 40
M  V30 33 1 41 42
M  V30 34 1 41 43
M  V30 35 1 41 44
M  V30 36 1 41 45
M  V30 37 1 46 47
M  V30 38 1 47 48
M  V30 39 1 49 50
M  V30 40 1 50 51
M  V30 41 1 52 53
M  V30 42 1 53 54
M  V30 43 1 55 56
M  V30 44 1 56 57
M  V30 45 1 58 59
M  V30 46 1 59 60
M  V30 47 1 61 62
M  V30 48 1 62 63
M  V30 49 1 64 65
M  V30 50 1 65 66
M  V30 51 1 67 68
M  V30 52 1 68 69
M  V30 53 1 70 71
M  V30 54 1 71 72
M  V30 55 1 73 74
M  V30 56 1 74 75
M  V30 57 1 76 77
M  V30 58 1 77 78
M  V30 59 1 79 80
M  V30 60 1 80 81
M  V30 61 1 82 83
M  V30 62 1 83 84
M  V30 63 1 85 86
M  V30 64 1 86 87
M  V30 65 1 88 89
M  V30 66 1 89 90
M  V30 67 1 91 92
M  V30 68 1 92 93
M  V30 69 1 94 95
M  V30 70 1 95 96
M  V30 71 1 97 98
M  V30 72 1 98 99
M  V30 73 1 2 85
M  V30 74 1 3 76
M  V30 75 1 4 61
M  V30 76 1 5 55
M  V30 77 1 7 94
M  V30 78 1 8 46
M  V30 79 1 9 91
M  V30 80 1 10 97
M  V30 81 1 12 49
M  V30 82 1 13 73
M  V30 83 1 14 64
M  V30 84 1 15 70
M  V30 85 1 17 48
M  V30 86 1 18 52
M  V30 87 1 19 79
M  V30 88 1 20 96
M  V30 89 1 22 51
M  V30 90 1 23 63
M  V30 91 1 24 88
M  V30 92 1 25 66
M  V30 93 1 27 78
M  V30 94 1 28 58
M  V30 95 1 29 75
M  V30 96 1 30 57
M  V30 97 1 32 99
M  V30 98 1 33 67
M  V30 99 1 34 82
M  V30 100 1 35 60
M  V30 101 1 37 84
M  V30 102 1 38 90
M  V30 103 1 39 81
M  V30 104 1 40 54
M  V30 105 1 42 93
M  V30 106 1 43 87
M  V30 107 1 44 69
M  V30 108 1 45 72
M  V30 END BOND
M  V30 END CTAB
M  END

$$$$
