
     RDKit          3D

  0  0  0  0  0  0  0  0  0  0999 V3000
M  V30 BEGIN CTAB
M  V30 COUNTS 99 108 0 0 0
M  V30 BEGIN ATOM
M  V30 1 Pd -4.3444 1.5176 -3.4149 0
M  V30 2 Pb -5.1167 1.0106 -3.0381 0
M  V30 3 Pb -4.4672 2.2603 -2.7574 0
M  V30 4 Pb -4.2766 0.7701 -4.0718 0
M  V30 5 Pb -3.4984 1.9377 -3.7465 0
M  V30 6 Pd 2.2419 6.8206 5.4455 0
M  V30 7 Pb 2.7505 5.9901 5.6563 0
M  V30 8 Pb 1.6739 7.5550 5.0540 0
M  V30 9 Pb 2.9393 7.0385 4.7725 0
M  V30 10 Pb 1.4817 6.5675 6.0379 0
M  V30 11 Pd 0.1667 -5.0540 3.8091 0
M  V30 12 Pb -0.6156 -5.5524 3.3934 0
M  V30 13 Pb 0.9448 -4.5169 4.1342 0
M  V30 14 Pb 0.8034 -5.6404 3.3154 0
M  V30 15 Pb -0.4711 -4.4503 4.2745 0
M  V30 16 Pd 3.5912 -5.7090 -2.8729 0
M  V30 17 Pb 3.5207 -6.1172 -1.9662 0
M  V30 18 Pb 2.8129 -6.2841 -3.1844 0
M  V30 19 Pb 4.2701 -5.0580 -2.5353 0
M  V30 20 Pb 3.6573 -5.3056 -3.7785 0
M  V30 21 Pd 4.6092 0.6172 1.5351 0
M  V30 22 Pb 4.4581 1.2972 2.2565 0
M  V30 23 Pb 4.4787 -0.0750 2.2463 0
M  V30 24 Pb 4.8702 -0.0950 0.8801 0
M  V30 25 Pb 4.6984 1.2898 0.7912 0
M  V30 26 Pd -1.9378 -5.5663 -4.8075 0
M  V30 27 Pb -1.1903 -6.1874 -4.5103 0
M  V30 28 Pb -2.5750 -5.9556 -4.1351 0
M  V30 29 Pb -2.6070 -4.8883 -5.0997 0
M  V30 30 Pb -1.3293 -5.1923 -5.4979 0
M  V30 31 Pd -4.6250 -4.7856 0.2906 0
M  V30 32 Pb -5.2357 -4.1701 -0.2078 0
M  V30 33 Pb -4.5173 -5.3870 -0.5072 0
M  V30 34 Pb -4.7430 -4.2041 1.0881 0
M  V30 35 Pb -3.9943 -5.3687 0.8346 0
M  V30 36 Pd 2.2751 5.0506 -1.5044 0
M  V30 37 Pb 2.9799 4.3339 -1.4931 0
M  V30 38 Pb 1.5982 5.7934 -1.4980 0
M  V30 39 Pb 2.8423 5.5587 -0.8632 0
M  V30 40 Pb 1.7128 4.5705 -2.1807 0
M  V30 41 Pd -1.9341 7.1164 1.6155 0
M  V30 42 Pb -1.2890 7.6757 2.1609 0
M  V30 43 Pb -2.6046 6.5798 1.1040 0
M  V30 44 Pb -1.4510 7.3336 0.7631 0
M  V30 45 Pb -2.3822 6.8685 2.4711 0
M  V30 46 Ag 3.1219 5.3416 5.6736 0
M  V30 47 Fe 3.7613 3.5258 4.2799 0
M  V30 48 Ag 4.4015 1.7128 2.8829 0
M  V30 49 Ag -5.6190 0.5241 -2.7724 0
M  V30 50 Fe -5.7721 -1.5638 -1.6531 0
M  V30 51 Ag -5.6740 -3.6521 -0.5281 0
M  V30 52 Ag 4.7265 -4.5245 -2.2727 0
M  V30 53 Fe 4.9263 -2.5764 -0.9265 0
M  V30 54 Ag 5.1318 -0.6265 0.4161 0
M  V30 55 Ag -1.0394 -4.0259 4.4852 0
M  V30 56 Fe -3.0970 -3.6120 3.4155 0
M  V30 57 Ag -4.7195 -3.8169 1.7194 0
M  V30 58 Ag 0.8039 6.4118 6.2972 0
M  V30 59 Fe -1.2268 6.4163 5.0959 0
M  V30 60 Ag -2.5624 6.6846 3.1689 0
M  V30 61 Ag 3.5480 -5.0261 -4.4538 0
M  V30 62 Fe 1.5389 -4.7629 -5.6496 0
M  V30 63 Ag -0.7907 -4.9349 -5.9353 0
M  V30 64 Ag 1.2852 -6.0478 2.9168 0
M  V30 65 Fe 2.4006 -6.2929 0.8392 0
M  V30 66 Ag 3.4450 -6.4153 -1.2856 0
M  V30 67 Ag 3.3863 7.1477 4.1898 0
M  V30 68 Fe 3.4755 6.6194 1.8844 0
M  V30 69 Ag 3.2604 5.9286 -0.3694 0
M  V30 70 Ag -4.3077 0.1740 -4.5225 0
M  V30 71 Fe -3.6970 -2.0737 -4.9714 0
M  V30 72 Ag -3.0279 -4.3195 -5.3385 0
M  V30 73 Ag -2.8310 2.2101 -3.9580 0
M  V30 74 Fe -0.7776 3.2374 -3.3425 0
M  V30 75 Ag 1.2693 4.2643 -2.7053 0
M  V30 76 Ag -4.5857 2.8192 -2.2723 0
M  V30 77 Fe -3.8161 4.4934 -0.7746 0
M  V30 78 Ag -3.1302 6.1897 0.7387 0
M  V30 79 Ag 1.5435 -4.1004 4.3085 0
M  V30 80 Fe 2.9803 -2.3457 3.6014 0
M  V30 81 Ag 4.3445 -0.5804 2.7854 0
M  V30 82 Ba 4.7863 1.7151 0.1712 0
M  V30 83 Ga 4.1224 2.7894 -0.6058 0
M  V30 84 Ba 3.5633 3.8543 -1.4731 0
M  V30 85 Ba 2.2206 -6.7261 -3.3881 0
M  V30 86 Ga 0.8023 -6.6267 -3.8516 0
M  V30 87 Ba -0.6186 -6.6595 -4.3165 0
M  V30 88 Ba 1.2554 8.0753 4.6937 0
M  V30 89 Ga 0.1989 8.0622 3.6439 0
M  V30 90 Ba -0.8576 8.1300 2.5966 0
M  V30 91 Ba -1.1802 -5.9558 3.0687 0
M  V30 92 Ga -2.3548 -5.8128 2.1554 0
M  V30 93 Ba -3.5520 -5.8271 1.2604 0
M  V30 94 Ba 1.1071 6.3666 -1.5118 0
M  V30 95 Ga 0.0104 6.9047 -0.6753 0
M  V30 96 Ba -1.0946 7.4900 0.1178 0
M  V30 97 Ba -3.0680 -6.2787 -3.6638 0
M  V30 98 Ga -3.7331 -6.0215 -2.3659 0
M  V30 99 Ba -4.4557 -5.8721 -1.0819 0
M  V30 END ATOM
M  V30 BEGIN BOND
M  V30 1 1 1 2
M  V30 2 1 1 3
M  V30 3 1 1 4
M  V30 4 1 1 5
M  V30 5 1 6 7
M  V30 6 1 6 8
M  V30 7 1 6 9
M  V30 8 1 6 10
M  V30 9 1 11 12
M  V30 10 1 11 13
M  V30 11 1 11 14
M  V30 12 1 11 15
M  V30 13 1 16 17
M  V30 14 1 16 18
M  V30 15 1 16 19
M  V30 16 1 16 20
M  V30 17 1 21 22
M  V30 18 1 21 23
M  V30 19 1 21 24
M  V30 20 1 21 25
M  V30 21 1 26 27
M  V30 22 1 26 28
M  V30 23 1 26 29
M  V30 24 1 26 30
M  V30 25 1 31 32
M  V30 26 1 31 33
M  V30 27 1 31 34
M  V30 28 1 31 35
M  V30 29 1 36 37
M  V30 30 1 36 38
M  V30 31 1 36 39
M  V30 32 1 36 40
M  V30 33 1 41 42
M  V30 34 1 41 43
M  V30 35 1 41 44
M  V30 36 1 41 45
M  V30 37 1 46 47
M  V30 38 1 47 48
M  V30 39 1 49 50
M  V30 40 1 50 51
M  V30 41 1 52 53
M  V30 42 1 53 54
M  V30 43 1 55 56
M  V30 44 1 56 57
M  V30 45 1 58 59
M  V30 46 1 59 60
M  V30 47 1 61 62
M  V30 48 1 62 63
M  V30 49 1 64 65
M  V30 50 1 65 66
M  V30 51 1 67 68
M  V30 52 1 68 69
M  V30 53 1 70 71
M  V30 54 1 71 72
M  V30 55 1 73 74
M  V30 56 1 74 75
M  V30 57 1 76 77
M  V30 58 1 77 78
M  V30 59 1 79 80
M  V30 60 1 80 81
M  V30 61 1 82 83
M  V30 62 1 83 84
M  V30 63 1 85 86
M  V30 64 1 86 87
M  V30 65 1 88 89
M  V30 66 1 89 90
M  V30 67 1 91 92
M  V30 68 1 92 93
M  V30 69 1 94 95
M  V30 70 1 95 96
M  V30 71 1 97 98
M  V30 72 1 98 99
M  V30 73 1 2 49
M  V30 74 1 3 76
M  V30 75 1 4 70
M  V30 76 1 5 73
M  V30 77 1 7 46
M  V30 78 1 8 88
M  V30 79 1 9 67
M  V30 80 1 10 58
M  V30 81 1 12 91
M  V30 82 1 13 79
M  V30 83 1 14 64
M  V30 84 1 15 55
M  V30 85 1 17 66
M  V30 86 1 18 85
M  V30 87 1 19 52
M  V30 88 1 20 61
M  V30 89 1 22 48
M  V30 90 1 23 81
M  V30 91 1 24 54
M  V30 92 1 25 82
M  V30 93 1 27 87
M  V30 94 1 28 97
M  V30 95 1 29 72
M  V30 96 1 30 63
M  V30 97 1 32 51
M  V30 98 1 33 99
M  V30 99 1 34 57
M  V30 100 1 35 93
M  V30 101 1 37 84
M  V30 102 1 38 94
M  V30 103 1 39 69
M  V30 104 1 40 75
M  V30 105 1 42 90
M  V30 106 1 43 78
M  V30 107 1 44 96
M  V30 108 1 45 60
M  V30 END BOND
M  V30 END CTAB
M  END

$$$$
