
     RDKit          3D

  0  0  0  0  0  0  0  0  0  0999 V3000
M  V30 BEGIN CTAB
M  V30 COUNTS 99 108 0 0 0
M  V30 BEGIN ATOM
M  V30 1 Pd 2.5260 7.4722 -0.7645 0
M  V30 2 Pb 1.7786 7.3664 -1.4223 0
M  V30 3 Pb 3.1852 7.3923 -1.5084 0
M  V30 4 Pb 3.2771 7.5837 -0.1233 0
M  V30 5 Pb 1.8793 7.4418 0.0180 0
M  V30 6 Pd 1.1507 4.5369 4.1507 0
M  V30 7 Pb 0.2490 4.1297 4.0047 0
M  V30 8 Pb 2.0468 4.9397 4.3001 0
M  V30 9 Pb 0.9145 5.3134 3.5375 0
M  V30 10 Pb 1.4160 3.7518 4.7091 0
M  V30 11 Pd -6.0671 -2.3177 -3.5390 0
M  V30 12 Pb -6.1083 -3.2974 -3.7097 0
M  V30 13 Pb -6.5850 -2.4669 -2.6799 0
M  V30 14 Pb -6.0102 -1.3344 -3.3692 0
M  V30 15 Pb -5.5039 -2.1588 -4.3507 0
M  V30 16 Pd -1.0357 -0.2899 5.2588 0
M  V30 17 Pb -1.9367 -0.6964 5.1020 0
M  V30 18 Pb -0.6862 -1.1293 5.6795 0
M  V30 19 Pb -1.3649 0.5552 4.8363 0
M  V30 20 Pb -0.1621 0.1509 5.4612 0
M  V30 21 Pd 5.4965 1.9139 -4.7569 0
M  V30 22 Pb 4.9632 2.1122 -5.5777 0
M  V30 23 Pb 5.8910 1.6944 -3.8625 0
M  V30 24 Pb 5.5551 2.8965 -4.5874 0
M  V30 25 Pb 5.4357 0.9301 -4.9128 0
M  V30 26 Pd -6.1283 -4.9929 1.7158 0
M  V30 27 Pb -6.0038 -4.2515 2.3735 0
M  V30 28 Pb -6.6244 -4.3785 1.0792 0
M  V30 29 Pb -5.5917 -5.5716 2.3275 0
M  V30 30 Pb -6.2058 -5.7214 1.0423 0
M  V30 31 Pd 0.9219 -5.5044 3.9955 0
M  V30 32 Pb 1.0161 -6.1994 3.2954 0
M  V30 33 Pb 1.8197 -5.1028 3.7162 0
M  V30 34 Pb 0.0270 -5.8929 4.2103 0
M  V30 35 Pb 0.8097 -4.8415 4.7391 0
M  V30 36 Pd 4.7817 -3.8486 -0.3750 0
M  V30 37 Pb 4.5595 -3.9447 0.6184 0
M  V30 38 Pb 4.4253 -4.7575 -0.5461 0
M  V30 39 Pb 4.9333 -3.7267 -1.3541 0
M  V30 40 Pb 5.1715 -2.9326 -0.2574 0
M  V30 41 Pd -1.6608 3.1065 -5.7149 0
M  V30 42 Pb -0.8196 3.1121 -6.2574 0
M  V30 43 Pb -1.4266 3.9925 -5.3116 0
M  V30 44 Pb -1.9186 2.2120 -6.0829 0
M  V30 45 Pb -2.4809 3.0524 -5.1464 0
M  V30 46 Ag 6.0917 1.4616 -3.1757 0
M  V30 47 Fe 5.8586 -0.3337 -1.6332 0
M  V30 48 Ag 5.4863 -2.2489 -0.2728 0
M  V30 49 Ag 5.4100 0.1836 -4.9486 0
M  V30 50 Fe 5.2235 -1.7761 -3.6248 0
M  V30 51 Ag 5.0195 -3.5639 -2.0790 0
M  V30 52 Ag 4.4766 2.2805 -6.1216 0
M  V30 53 Fe 2.1704 2.7030 -6.4989 0
M  V30 54 Ag -0.1696 3.0870 -6.6323 0
M  V30 55 Ag -5.1446 -5.9449 2.7975 0
M  V30 56 Fe -2.9258 -6.1385 3.6173 0
M  V30 57 Ag -0.6561 -6.1833 4.3096 0
M  V30 58 Ag -5.9170 -0.5945 -3.2947 0
M  V30 59 Fe -4.5720 1.2513 -3.9431 0
M  V30 60 Ag -3.0883 2.9317 -4.7249 0
M  V30 61 Ag -5.0492 -1.9695 -4.9173 0
M  V30 62 Fe -3.5811 -0.2787 -5.7121 0
M  V30 63 Ag -2.1673 1.5379 -6.3013 0
M  V30 64 Ag -2.6358 -0.9501 4.9974 0
M  V30 65 Fe -4.2472 -2.3335 3.9343 0
M  V30 66 Ag -5.8644 -3.7147 2.8769 0
M  V30 67 Ag 3.7597 7.5867 0.4378 0
M  V30 68 Fe 3.6758 6.5825 2.5656 0
M  V30 69 Ag 2.6962 5.2935 4.2749 0
M  V30 70 Ag -6.1496 -4.0374 -3.6791 0
M  V30 71 Fe -6.2275 -5.5195 -1.8463 0
M  V30 72 Ag -6.2450 -6.1371 0.4295 0
M  V30 73 Ag 3.6866 7.2479 -2.0432 0
M  V30 74 Fe 4.6808 5.5016 -3.3044 0
M  V30 75 Ag 5.5667 3.6366 -4.4734 0
M  V30 76 Ag 1.1574 -6.6528 2.7306 0
M  V30 77 Fe 2.5508 -6.4727 0.8455 0
M  V30 78 Ag 4.0963 -5.4169 -0.5772 0
M  V30 79 Ag 1.2351 7.2959 -1.9363 0
M  V30 80 Fe -0.0123 5.9659 -3.4604 0
M  V30 81 Ag -1.2715 4.6537 -4.9902 0
M  V30 82 Ba -6.9912 -2.5641 -2.0403 0
M  V30 83 Ga -6.9402 -3.2690 -0.7262 0
M  V30 84 Ba -7.0179 -3.9151 0.6166 0
M  V30 85 Ba -0.4260 3.8190 3.9014 0
M  V30 86 Ga -1.0201 2.5037 4.2083 0
M  V30 87 Ba -1.6118 1.1876 4.5163 0
M  V30 88 Ba 2.5078 -4.8028 3.5369 0
M  V30 89 Ga 3.4011 -4.4282 2.3905 0
M  V30 90 Ba 4.4194 -3.9971 1.3756 0
M  V30 91 Ba -0.3868 -1.7312 6.0161 0
M  V30 92 Ga 0.1492 -3.0536 5.6311 0
M  V30 93 Ba 0.7038 -4.3904 5.3321 0
M  V30 94 Ba 1.6331 3.1518 5.1020 0
M  V30 95 Ga 1.0581 1.8219 5.3728 0
M  V30 96 Ba 0.4796 0.4931 5.6413 0
M  V30 97 Ba 1.3910 7.4175 0.6071 0
M  V30 98 Ga 1.1073 6.6180 1.8382 0
M  V30 99 Ba 0.7163 5.9061 3.0933 0
M  V30 END ATOM
M  V30 BEGIN BOND
M  V30 1 1 1 2
M  V30 2 1 1 3
M  V30 3 1 1 4
M  V30 4 1 1 5
M  V30 5 1 6 7
M  V30 6 1 6 8
M  V30 7 1 6 9
M  V30 8 1 6 10
M  V30 9 1 11 12
M  V30 10 1 11 13
M  V30 11 1 11 14
M  V30 12 1 11 15
M  V30 13 1 16 17
M  V30 14 1 16 18
M  V30 15 1 16 19
M  V30 16 1 16 20
M  V30 17 1 21 22
M  V30 18 1 21 23
M  V30 19 1 21 24
M  V30 20 1 21 25
M  V30 21 1 26 27
M  V30 22 1 26 28
M  V30 23 1 26 29
M  V30 24 1 26 30
M  V30 25 1 31 32
M  V30 26 1 31 33
M  V30 27 1 31 34
M  V30 28 1 31 35
M  V30 29 1 36 37
M  V30 30 1 36 38
M  V30 31 1 36 39
M  V30 32 1 36 40
M  V30 33 1 41 42
M  V30 34 1 41 43
M  V30 35 1 41 44
M  V30 36 1 41 45
M  V30 37 1 46 47
M  V30 38 1 47 48
M  V30 39 1 49 50
M  V30 40 1 50 51
M  V30 41 1 52 53
M  V30 42 1 53 54
M  V30 43 1 55 56
M  V30 44 1 56 57
M  V30 45 1 58 59
M  V30 46 1 59 60
M  V30 47 1 61 62
M  V30 48 1 62 63
M  V30 49 1 64 65
M  V30 50 1 65 66
M  V30 51 1 67 68
M  V30 52 1 68 69
M  V30 53 1 70 71
M  V30 54 1 71 72
M  V30 55 1 73 74
M  V30 56 1 74 75
M  V30 57 1 76 77
M  V30 58 1 77 78
M  V30 59 1 79 80
M  V30 60 1 80 81
M  V30 61 1 82 83
M  V30 62 1 83 84
M  V30 63 1 85 86
M  V30 64 1 86 87
M  V30 65 1 88 89
M  V30 66 1 89 90
M  V30 67 1 91 92
M  V30 68 1 92 93
M  V30 69 1 94 95
M  V30 70 1 95 96
M  V30 71 1 97 98
M  V30 72 1 98 99
M  V30 73 1 2 79
M  V30 74 1 3 73
M  V30 75 1 4 67
M  V30 76 1 5 97
M  V30 77 1 7 85
M  V30 78 1 8 69
M  V30 79 1 9 99
M  V30 80 1 10 94
M  V30 81 1 12 70
M  V30 82 1 13 82
M  V30 83 1 14 58
M  V30 84 1 15 61
M  V30 85 1 17 64
M  V30 86 1 18 91
M  V30 87 1 19 87
M  V30 88 1 20 96
M  V30 89 1 22 52
M  V30 90 1 23 46
M  V30 91 1 24 75
M  V30 92 1 25 49
M  V30 93 1 27 66
M  V30 94 1 28 84
M  V30 95 1 29 55
M  V30 96 1 30 72
M  V30 97 1 32 76
M  V30 98 1 33 88
M  V30 99 1 34 57
M  V30 100 1 35 93
M  V30 101 1 37 90
M  V30 102 1 38 78
M  V30 103 1 39 51
M  V30 104 1 40 48
M  V30 105 1 42 54
M  V30 106 1 43 81
M  V30 107 1 44 63
M  V30 108 1 45 60
M  V30 END BOND
M  V30 END CTAB
M  END

$$$$
