
     RDKit          3D

  0  0  0  0  0  0  0  0  0  0999 V3000
M  V30 BEGIN CTAB
M  V30 COUNTS 99 108 0 0 0
M  V30 BEGIN ATOM
M  V30 1 Pd -3.8179 4.8090 -0.7024 0
M  V30 2 Pb -4.0544 3.9050 -1.0785 0
M  V30 3 Pb -3.6309 5.7285 -0.3742 0
M  V30 4 Pb -4.6576 4.7944 -0.1288 0
M  V30 5 Pb -2.9249 4.8457 -1.1478 0
M  V30 6 Pd -5.4169 5.0930 4.7962 0
M  V30 7 Pb -5.6369 4.1377 4.9846 0
M  V30 8 Pb -5.8459 5.0347 3.8775 0
M  V30 9 Pb -5.1607 6.0359 4.6121 0
M  V30 10 Pb -4.8383 5.0945 5.6107 0
M  V30 11 Pd 0.5722 0.2261 -5.2506 0
M  V30 12 Pb 1.0513 -0.4275 -5.8260 0
M  V30 13 Pb 0.0480 0.7709 -4.5983 0
M  V30 14 Pb 1.4568 0.4556 -4.8399 0
M  V30 15 Pb -0.3096 -0.0501 -5.6261 0
M  V30 16 Pd 6.5520 -2.4401 -1.1059 0
M  V30 17 Pb 6.9391 -3.1233 -0.4897 0
M  V30 18 Pb 6.6882 -3.0952 -1.8497 0
M  V30 19 Pb 6.3391 -1.8767 -0.3072 0
M  V30 20 Pb 6.1393 -1.7460 -1.7015 0
M  V30 21 Pd -2.9587 -1.0387 -2.1910 0
M  V30 22 Pb -2.5011 -1.9282 -2.2855 0
M  V30 23 Pb -2.7976 -1.0927 -1.2072 0
M  V30 24 Pb -3.0840 -1.0030 -3.1823 0
M  V30 25 Pb -3.4764 -0.1796 -2.1022 0
M  V30 26 Pd -1.9280 1.7498 5.0617 0
M  V30 27 Pb -2.8769 1.5206 5.2706 0
M  V30 28 Pb -1.0000 2.0098 4.7872 0
M  V30 29 Pb -1.9996 2.5105 5.7106 0
M  V30 30 Pb -1.9035 0.9922 4.4135 0
M  V30 31 Pd 3.1509 -5.8955 -2.8996 0
M  V30 32 Pb 2.1565 -5.8012 -2.8148 0
M  V30 33 Pb 3.1701 -6.3706 -2.0163 0
M  V30 34 Pb 3.1114 -5.4377 -3.7836 0
M  V30 35 Pb 4.1476 -5.8861 -2.9964 0
M  V30 36 Pd 0.0831 1.8962 0.2479 0
M  V30 37 Pb -0.0373 0.9576 0.5709 0
M  V30 38 Pb -0.3912 1.7241 -0.6142 0
M  V30 39 Pb 0.1867 2.8138 -0.1255 0
M  V30 40 Pb 0.5120 2.1270 1.1245 0
M  V30 41 Pd 3.7928 -4.3900 2.1180 0
M  V30 42 Pb 4.1245 -3.4673 2.3169 0
M  V30 43 Pb 4.7391 -4.7026 2.1026 0
M  V30 44 Pb 3.5054 -5.2894 1.7931 0
M  V30 45 Pb 2.8578 -4.0407 2.0821 0
M  V30 46 Ag 2.1449 0.5686 -4.5575 0
M  V30 47 Fe 3.9855 -0.3043 -3.3297 0
M  V30 48 Ag 5.8175 -1.1938 -2.1011 0
M  V30 49 Ag -0.1045 0.2533 0.8194 0
M  V30 50 Fe 0.9745 -1.7685 1.4396 0
M  V30 51 Ag 2.1797 -3.7276 2.0279 0
M  V30 52 Ag -3.5584 6.3803 -0.0304 0
M  V30 53 Fe -4.0976 7.0655 2.1551 0
M  V30 54 Ag -4.9140 6.6713 4.3259 0
M  V30 55 Ag -2.6357 -1.1785 -0.4813 0
M  V30 56 Fe -2.2818 -0.3552 1.7157 0
M  V30 57 Ag -1.9199 0.4250 3.9271 0
M  V30 58 Ag 1.4143 -0.9947 -6.1399 0
M  V30 59 Fe 2.3117 -3.0801 -5.4692 0
M  V30 60 Ag 3.0722 -5.0668 -4.4296 0
M  V30 61 Ag -2.1991 -2.6173 -2.3455 0
M  V30 62 Fe -0.3801 -4.1371 -2.5512 0
M  V30 63 Ag 1.4151 -5.6850 -2.7573 0
M  V30 64 Ba -4.3234 5.0402 6.1526 0
M  V30 65 Ga -3.2010 4.0843 6.2379 0
M  V30 66 Ba -2.1280 3.0702 6.1969 0
M  V30 67 Ba 3.1289 -6.7333 -1.3572 0
M  V30 68 Ga 3.2312 -6.3599 0.0682 0
M  V30 69 Ba 3.3428 -5.9516 1.4831 0
M  V30 70 Ba 6.1320 -1.5360 0.3286 0
M  V30 71 Ga 5.2789 -2.0784 1.4039 0
M  V30 72 Ba 4.4135 -2.7769 2.3741 0
M  V30 73 Ba -5.2853 4.7990 0.3122 0
M  V30 74 Ga -5.6667 4.8905 1.7562 0
M  V30 75 Ba -6.1411 4.9763 3.1728 0
M  V30 76 Ba -2.2138 4.9359 -1.3665 0
M  V30 77 Ga -0.9790 4.2344 -0.9755 0
M  V30 78 Ba 0.1801 3.4489 -0.5187 0
M  V30 79 Ba -5.7354 3.4146 5.1486 0
M  V30 80 Ga -4.7254 2.3532 5.2870 0
M  V30 81 Ba -3.6062 1.4029 5.3883 0
M  V30 82 Ba -0.3179 2.2000 4.5335 0
M  V30 83 Ga 0.2657 2.2521 3.1757 0
M  V30 84 Ba 0.8049 2.2883 1.7991 0
M  V30 85 Ba -1.0006 -0.2552 -5.8232 0
M  V30 86 Ga -2.1154 -0.6285 -4.9370 0
M  V30 87 Ba -3.1315 -0.9771 -3.9300 0
M  V30 88 Ba -4.3306 3.2650 -1.3735 0
M  V30 89 Ga -4.0255 1.8487 -1.6889 0
M  V30 90 Ba -3.9338 0.4227 -2.0847 0
M  V30 91 Ba 7.1738 -3.6402 -0.0033 0
M  V30 92 Ga 6.3969 -4.3172 1.0441 0
M  V30 93 Ba 5.4597 -4.8802 2.0255 0
M  V30 94 Ba 6.7714 -3.6682 -2.3285 0
M  V30 95 Ga 5.8498 -4.7441 -2.7497 0
M  V30 96 Ba 4.8811 -5.7921 -3.1341 0
M  V30 97 Ba -0.4357 1.0898 -4.1230 0
M  V30 98 Ga -0.5494 1.3894 -2.6835 0
M  V30 99 Ba -0.7649 1.7268 -1.2642 0
M  V30 END ATOM
M  V30 BEGIN BOND
M  V30 1 1 1 2
M  V30 2 1 1 3
M  V30 3 1 1 4
M  V30 4 1 1 5
M  V30 5 1 6 7
M  V30 6 1 6 8
M  V30 7 1 6 9
M  V30 8 1 6 10
M  V30 9 1 11 12
M  V30 10 1 11 13
M  V30 11 1 11 14
M  V30 12 1 11 15
M  V30 13 1 16 17
M  V30 14 1 16 18
M  V30 15 1 16 19
M  V30 16 1 16 20
M  V30 17 1 21 22
M  V30 18 1 21 23
M  V30 19 1 21 24
M  V30 20 1 21 25
M  V30 21 1 26 27
M  V30 22 1 26 28
M  V30 23 1 26 29
M  V30 24 1 26 30
M  V30 25 1 31 32
M  V30 26 1 31 33
M  V30 27 1 31 34
M  V30 28 1 31 35
M  V30 29 1 36 37
M  V30 30 1 36 38
M  V30 31 1 36 39
M  V30 32 1 36 40
M  V30 33 1 41 42
M  V30 34 1 41 43
M  V30 35 1 41 44
M  V30 36 1 41 45
M  V30 37 1 46 47
M  V30 38 1 47 48
M  V30 39 1 49 50
M  V30 40 1 50 51
M  V30 41 1 52 53
M  V30 42 1 53 54
M  V30 43 1 55 56
M  V30 44 1 56 57
M  V30 45 1 58 59
M  V30 46 1 59 60
M  V30 47 1 61 62
M  V30 48 1 62 63
M  V30 49 1 64 65
M  V30 50 1 65 66
M  V30 51 1 67 68
M  V30 52 1 68 69
M  V30 53 1 70 71
M  V30 54 1 71 72
M  V30 55 1 73 74
M  V30 56 1 74 75
M  V30 57 1 76 77
M  V30 58 1 77 78
M  V30 59 1 79 80
M  V30 60 1 80 81
M  V30 61 1 82 83
M  V30 62 1 83 84
M  V30 63 1 85 86
M  V30 64 1 86 87
M  V30 65 1 88 89
M  V30 66 1 89 90
M  V30 67 1 91 92
M  V30 68 1 92 93
M  V30 69 1 94 95
M  V30 70 1 95 96
M  V30 71 1 97 98
M  V30 72 1 98 99
M  V30 73 1 2 88
M  V30 74 1 3 52
M  V30 75 1 4 73
M  V30 76 1 5 76
M  V30 77 1 7 79
M  V30 78 1 8 75
M  V30 79 1 9 54
M  V30 80 1 10 64
M  V30 81 1 12 58
M  V30 82 1 13 97
M  V30 83 1 14 46
M  V30 84 1 15 85
M  V30 85 1 17 91
M  V30 86 1 18 94
M  V30 87 1 19 70
M  V30 88 1 20 48
M  V30 89 1 22 61
M  V30 90 1 23 55
M  V30 91 1 24 87
M  V30 92 1 25 90
M  V30 93 1 27 81
M  V30 94 1 28 82
M  V30 95 1 29 66
M  V30 96 1 30 57
M  V30 97 1 32 63
M  V30 98 1 33 67
M  V30 99 1 34 60
M  V30 100 1 35 96
M  V30 101 1 37 49
M  V30 102 1 38 99
M  V30 103 1 39 78
M  V30 104 1 40 84
M  V30 105 1 42 72
M  V30 106 1 43 93
M  V30 107 1 44 69
M  V30 108 1 45 51
M  V30 END BOND
M  V30 END CTAB
M  END

$$$$
