
     RDKit          3D

  0  0  0  0  0  0  0  0  0  0999 V3000
M  V30 BEGIN CTAB
M  V30 COUNTS 99 108 0 0 0
M  V30 BEGIN ATOM
M  V30 1 Pd 4.3709 -4.1413 2.9393 0
M  V30 2 Pb 3.5667 -4.1246 3.5328 0
M  V30 3 Pb 5.1665 -4.1004 2.3379 0
M  V30 4 Pb 4.9716 -3.8224 3.6795 0
M  V30 5 Pb 3.7964 -4.1823 2.1199 0
M  V30 6 Pd -4.7200 1.8784 1.9966 0
M  V30 7 Pb -5.5092 1.4832 1.5250 0
M  V30 8 Pb -4.4472 2.3852 1.1785 0
M  V30 9 Pb -4.9707 1.3465 2.8068 0
M  V30 10 Pb -3.9433 2.2898 2.4774 0
M  V30 11 Pd 6.2629 0.0629 2.1662 0
M  V30 12 Pb 5.7893 0.2804 1.3110 0
M  V30 13 Pb 5.8133 0.8085 2.6564 0
M  V30 14 Pb 6.5398 -0.3658 3.0328 0
M  V30 15 Pb 6.6764 -0.7175 1.7010 0
M  V30 16 Pd 2.1769 4.1639 -3.7825 0
M  V30 17 Pb 2.5100 3.4338 -4.3874 0
M  V30 18 Pb 1.8184 4.8345 -3.1381 0
M  V30 19 Pb 2.9754 4.0424 -3.1884 0
M  V30 20 Pb 1.3558 4.3399 -4.3290 0
M  V30 21 Pd 0.5260 -0.7292 -4.5206 0
M  V30 22 Pb 0.9561 -0.9162 -3.6378 0
M  V30 23 Pb -0.3901 -0.9568 -4.1336 0
M  V30 24 Pb 1.3745 -0.3384 -4.8805 0
M  V30 25 Pb 0.1236 -0.6749 -5.4283 0
M  V30 26 Pd -4.2817 1.8554 -3.8554 0
M  V30 27 Pb -4.1897 2.7578 -4.2629 0
M  V30 28 Pb -4.0987 2.2738 -2.9632 0
M  V30 29 Pb -4.4463 1.4974 -4.7691 0
M  V30 30 Pb -4.0211 0.9287 -3.5428 0
M  V30 31 Pd 2.5051 4.2607 1.4414 0
M  V30 32 Pb 3.2452 4.2015 0.7684 0
M  V30 33 Pb 1.9828 4.8119 0.7938 0
M  V30 34 Pb 1.7236 4.2432 2.0663 0
M  V30 35 Pb 3.0592 3.7843 2.1242 0
M  V30 36 Pd -0.7131 -4.5395 1.7760 0
M  V30 37 Pb 0.0560 -4.1171 1.2982 0
M  V30 38 Pb -1.5655 -4.8290 2.2405 0
M  V30 39 Pb -0.2743 -4.3525 2.6540 0
M  V30 40 Pb -1.1311 -4.7787 0.9051 0
M  V30 41 Pd -6.1809 -2.9397 2.0355 0
M  V30 42 Pb -6.1888 -3.4524 1.1827 0
M  V30 43 Pb -5.5494 -3.6296 2.4285 0
M  V30 44 Pb -6.1121 -2.3760 2.8582 0
M  V30 45 Pb -6.7135 -2.2123 1.6064 0
M  V30 46 Ag 1.2708 -1.1435 -2.9962 0
M  V30 47 Fe 1.0060 -2.4156 -1.0086 0
M  V30 48 Ag 0.5730 -3.7217 0.9267 0
M  V30 49 Ag 3.4996 -3.9375 1.4793 0
M  V30 50 Fe 4.0657 -1.8340 0.5584 0
M  V30 51 Ag 5.3247 0.1599 0.7385 0
M  V30 52 Ag -0.2946 -0.6400 -6.0383 0
M  V30 53 Fe -2.4800 0.1690 -6.3450 0
M  V30 54 Ag -4.3806 1.2231 -5.4524 0
M  V30 55 Ag -3.3604 2.6221 2.8168 0
M  V30 56 Fe -1.1235 3.4171 2.7042 0
M  V30 57 Ag 1.1179 4.1823 2.5061 0
M  V30 58 Ag -1.5651 -4.9411 0.3259 0
M  V30 59 Fe -3.8674 -4.6063 -0.0425 0
M  V30 60 Ag -6.0021 -3.8227 0.5694 0
M  V30 61 Ag 0.6989 4.5336 -4.6406 0
M  V30 62 Fe -1.6369 4.1166 -4.7403 0
M  V30 63 Ag -3.8789 3.3511 -4.5901 0
M  V30 64 Ba 3.5591 3.9881 -2.7159 0
M  V30 65 Ga 3.6858 4.0543 -1.2439 0
M  V30 66 Ba 3.7661 4.1258 0.2310 0
M  V30 67 Ba 2.9512 -4.0873 3.9592 0
M  V30 68 Ga 1.5100 -4.1602 3.6581 0
M  V30 69 Ba 0.0813 -4.2406 3.3038 0
M  V30 70 Ba 1.5219 5.2973 -2.6326 0
M  V30 71 Ga 1.5579 5.3003 -1.1618 0
M  V30 72 Ba 1.6274 5.2554 0.3072 0
M  V30 73 Ba -4.1994 2.7816 0.5917 0
M  V30 74 Ga -4.1077 2.6647 -0.8776 0
M  V30 75 Ba -3.9504 2.6773 -2.3457 0
M  V30 76 Ba 5.7588 -3.9901 1.8950 0
M  V30 77 Ga 6.4155 -2.7113 1.5837 0
M  V30 78 Ba 6.9346 -1.3483 1.3937 0
M  V30 79 Ba -2.2195 -5.0213 2.5842 0
M  V30 80 Ga -3.6375 -4.5549 2.6214 0
M  V30 81 Ba -5.0724 -4.1534 2.7162 0
M  V30 82 Ba 5.4458 -3.4624 4.1478 0
M  V30 83 Ga 6.0894 -2.1333 3.9648 0
M  V30 84 Ba 6.6582 -0.7957 3.6455 0
M  V30 85 Ba -6.1115 1.1666 1.2079 0
M  V30 86 Ga -6.6210 -0.2170 1.2148 0
M  V30 87 Ba -7.0463 -1.6271 1.2794 0
M  V30 88 Ba 2.7792 2.8599 -4.7978 0
M  V30 89 Ga 2.3921 1.4441 -4.9905 0
M  V30 90 Ba 1.9661 0.0360 -5.1546 0
M  V30 91 Ba -5.1693 0.9151 3.3887 0
M  V30 92 Ga -5.6084 -0.4918 3.4631 0
M  V30 93 Ba -6.0369 -1.9035 3.4355 0
M  V30 94 Ba 5.4713 1.3422 3.0559 0
M  V30 95 Ga 4.4711 2.4005 2.8233 0
M  V30 96 Ba 3.4763 3.4776 2.6669 0
M  V30 97 Ba -1.0821 -1.1008 -3.8265 0
M  V30 98 Ga -2.3957 -0.4113 -3.6094 0
M  V30 99 Ba -3.7239 0.2438 -3.3742 0
M  V30 END ATOM
M  V30 BEGIN BOND
M  V30 1 1 1 2
M  V30 2 1 1 3
M  V30 3 1 1 4
M  V30 4 1 1 5
M  V30 5 1 6 7
M  V30 6 1 6 8
M  V30 7 1 6 9
M  V30 8 1 6 10
M  V30 9 1 11 12
M  V30 10 1 11 13
M  V30 11 1 11 14
M  V30 12 1 11 15
M  V30 13 1 16 17
M  V30 14 1 16 18
M  V30 15 1 16 19
M  V30 16 1 16 20
M  V30 17 1 21 22
M  V30 18 1 21 23
M  V30 19 1 21 24
M  V30 20 1 21 25
M  V30 21 1 26 27
M  V30 22 1 26 28
M  V30 23 1 26 29
M  V30 24 1 26 30
M  V30 25 1 31 32
M  V30 26 1 31 33
M  V30 27 1 31 34
M  V30 28 1 31 35
M  V30 29 1 36 37
M  V30 30 1 36 38
M  V30 31 1 36 39
M  V30 32 1 36 40
M  V30 33 1 41 42
M  V30 34 1 41 43
M  V30 35 1 41 44
M  V30 36 1 41 45
M  V30 37 1 46 47
M  V30 38 1 47 48
M  V30 39 1 49 50
M  V30 40 1 50 51
M  V30 41 1 52 53
M  V30 42 1 53 54
M  V30 43 1 55 56
M  V30 44 1 56 57
M  V30 45 1 58 59
M  V30 46 1 59 60
M  V30 47 1 61 62
M  V30 48 1 62 63
M  V30 49 1 64 65
M  V30 50 1 65 66
M  V30 51 1 67 68
M  V30 52 1 68 69
M  V30 53 1 70 71
M  V30 54 1 71 72
M  V30 55 1 73 74
M  V30 56 1 74 75
M  V30 57 1 76 77
M  V30 58 1 77 78
M  V30 59 1 79 80
M  V30 60 1 80 81
M  V30 61 1 82 83
M  V30 62 1 83 84
M  V30 63 1 85 86
M  V30 64 1 86 87
M  V30 65 1 88 89
M  V30 66 1 89 90
M  V30 67 1 91 92
M  V30 68 1 92 93
M  V30 69 1 94 95
M  V30 70 1 95 96
M  V30 71 1 97 98
M  V30 72 1 98 99
M  V30 73 1 2 67
M  V30 74 1 3 76
M  V30 75 1 4 82
M  V30 76 1 5 49
M  V30 77 1 7 85
M  V30 78 1 8 73
M  V30 79 1 9 91
M  V30 80 1 10 55
M  V30 81 1 12 51
M  V30 82 1 13 94
M  V30 83 1 14 84
M  V30 84 1 15 78
M  V30 85 1 17 88
M  V30 86 1 18 70
M  V30 87 1 19 64
M  V30 88 1 20 61
M  V30 89 1 22 46
M  V30 90 1 23 97
M  V30 91 1 24 90
M  V30 92 1 25 52
M  V30 93 1 27 63
M  V30 94 1 28 75
M  V30 95 1 29 54
M  V30 96 1 30 99
M  V30 97 1 32 66
M  V30 98 1 33 72
M  V30 99 1 34 57
M  V30 100 1 35 96
M  V30 101 1 37 48
M  V30 102 1 38 79
M  V30 103 1 39 69
M  V30 104 1 40 58
M  V30 105 1 42 60
M  V30 106 1 43 81
M  V30 107 1 44 93
M  V30 108 1 45 87
M  V30 END BOND
M  V30 END CTAB
M  END

$$$$
