
     RDKit          3D

  0  0  0  0  0  0  0  0  0  0999 V3000
M  V30 BEGIN CTAB
M  V30 COUNTS 99 108 0 0 0
M  V30 BEGIN ATOM
M  V30 1 Pd -2.8873 -8.8212 1.7370 0
M  V30 2 Pb -3.1653 -8.0659 2.3304 0
M  V30 3 Pb -2.6050 -9.5608 1.1354 0
M  V30 4 Pb -3.6123 -8.6118 1.0776 0
M  V30 5 Pb -1.9487 -8.7980 2.0871 0
M  V30 6 Pd 2.5591 3.0162 -4.4014 0
M  V30 7 Pb 2.0728 2.1852 -4.6730 0
M  V30 8 Pb 3.0253 3.8732 -4.1726 0
M  V30 9 Pb 1.7001 3.5035 -4.5549 0
M  V30 10 Pb 3.3847 2.4836 -4.2100 0
M  V30 11 Pd 0.1590 -6.4583 -2.8582 0
M  V30 12 Pb 0.8764 -6.6098 -2.1752 0
M  V30 13 Pb 0.2003 -5.4670 -2.7314 0
M  V30 14 Pb -0.7884 -6.4160 -3.1815 0
M  V30 15 Pb 0.1144 -7.4447 -2.9744 0
M  V30 16 Pd 4.3327 2.2555 4.1538 0
M  V30 17 Pb 3.5956 2.5657 4.7610 0
M  V30 18 Pb 3.9173 1.3496 4.0593 0
M  V30 19 Pb 5.0704 1.9578 3.5518 0
M  V30 20 Pb 4.7168 3.1742 4.0999 0
M  V30 21 Pd -0.8311 4.2016 3.7701 0
M  V30 22 Pb -1.4430 3.4852 4.1098 0
M  V30 23 Pb -0.2616 4.9768 3.4588 0
M  V30 24 Pb -0.1915 4.0130 4.5185 0
M  V30 25 Pb -1.4196 4.3679 2.9827 0
M  V30 26 Pd 2.3911 6.8725 -0.4637 0
M  V30 27 Pb 3.2495 6.9405 0.0389 0
M  V30 28 Pb 2.8666 6.7551 -1.3365 0
M  V30 29 Pb 1.4968 6.7472 -0.8845 0
M  V30 30 Pb 1.9373 6.9345 0.4363 0
M  V30 31 Pd 4.0489 -0.2701 -0.3074 0
M  V30 32 Pb 4.8685 0.0781 0.1403 0
M  V30 33 Pb 3.6925 -0.5283 0.5963 0
M  V30 34 Pb 4.4200 0.0132 -1.1952 0
M  V30 35 Pb 3.2302 -0.6355 -0.7506 0
M  V30 36 Pd -5.5743 -1.5963 2.4143 0
M  V30 37 Pb -5.2647 -1.0482 3.1895 0
M  V30 38 Pb -5.7677 -2.0909 1.5679 0
M  V30 39 Pb -5.2648 -2.4330 2.8657 0
M  V30 40 Pb -5.8796 -0.7727 1.9371 0
M  V30 41 Pd -4.2646 0.7761 -4.0726 0
M  V30 42 Pb -4.9249 1.1866 -3.4479 0
M  V30 43 Pb -4.6215 -0.1129 -3.7838 0
M  V30 44 Pb -3.8630 1.6644 -4.2939 0
M  V30 45 Pb -3.5017 0.3611 -4.5649 0
M  V30 46 Ag -1.9208 2.9756 4.3875 0
M  V30 47 Fe -3.4516 1.1824 4.0981 0
M  V30 48 Ag -4.9643 -0.6087 3.7160 0
M  V30 49 Ag -1.2040 -8.6731 2.0958 0
M  V30 50 Fe 0.2800 -7.7669 0.4647 0
M  V30 51 Ag 1.1935 -6.8167 -1.5218 0
M  V30 52 Ag -3.3767 -7.4969 2.7708 0
M  V30 53 Fe -4.2026 -5.2818 2.9965 0
M  V30 54 Ag -5.0294 -3.0644 3.1947 0
M  V30 55 Ag -2.3338 -10.0006 0.6046 0
M  V30 56 Fe -1.1024 -9.5211 -1.3474 0
M  V30 57 Ag 0.0067 -8.1767 -2.9344 0
M  V30 58 Ag -1.7175 4.5463 2.3241 0
M  V30 59 Fe -0.8232 5.5647 0.3879 0
M  V30 60 Ag 0.7836 6.5825 -1.0144 0
M  V30 61 Ag -5.8456 -2.3583 0.8722 0
M  V30 62 Fe -5.4356 -1.7098 -1.3752 0
M  V30 63 Ag -4.8976 -0.7385 -3.4746 0
M  V30 64 Ag -6.0957 -0.1980 1.5075 0
M  V30 65 Fe -5.8479 0.7518 -0.6528 0
M  V30 66 Ag -5.3546 1.4091 -2.8785 0
M  V30 67 Ag -3.9347 -8.3657 0.4407 0
M  V30 68 Fe -3.0249 -7.3903 -1.5353 0
M  V30 69 Ag -1.5387 -6.5011 -3.1737 0
M  V30 70 Ag 1.6475 1.6094 -4.8983 0
M  V30 71 Fe -0.5616 0.7407 -4.9556 0
M  V30 72 Ag -2.8518 0.1233 -4.8501 0
M  V30 73 Ag 4.9813 3.8463 3.9095 0
M  V30 74 Fe 4.5825 5.5290 2.2880 0
M  V30 75 Ag 3.8115 6.9202 0.5303 0
M  V30 76 Ag 1.0114 3.7820 -4.6530 0
M  V30 77 Fe -1.2843 3.1802 -4.5871 0
M  V30 78 Ag -3.4815 2.2922 -4.4430 0
M  V30 79 Ag 0.2373 -4.7238 -2.6365 0
M  V30 80 Fe 1.4188 -2.8145 -1.8619 0
M  V30 81 Ag 2.6193 -0.9203 -1.0797 0
M  V30 82 Ba 5.6125 1.7434 3.0838 0
M  V30 83 Ga 5.5824 1.0416 1.7919 0
M  V30 84 Ba 5.4655 0.3361 0.5072 0
M  V30 85 Ba 3.6139 0.6813 3.8969 0
M  V30 86 Ga 3.5143 -0.0390 2.6076 0
M  V30 87 Ba 3.4477 -0.7067 1.2881 0
M  V30 88 Ba 3.3639 4.5303 -4.0342 0
M  V30 89 Ga 3.2939 5.5813 -2.9987 0
M  V30 90 Ba 3.2433 6.6466 -1.9769 0
M  V30 91 Ba 3.9829 2.0559 -4.0569 0
M  V30 92 Ga 4.3479 1.1482 -2.9490 0
M  V30 93 Ba 4.7232 0.2376 -1.8470 0
M  V30 94 Ba 3.0561 2.8015 5.2323 0
M  V30 95 Ga 1.6777 3.3295 5.1333 0
M  V30 96 Ba 0.2981 3.8599 5.0689 0
M  V30 97 Ba 0.1147 5.6087 3.2643 0
M  V30 98 Ga 0.8741 6.2380 2.1509 0
M  V30 99 Ba 1.6499 7.0006 1.1365 0
M  V30 END ATOM
M  V30 BEGIN BOND
M  V30 1 1 1 2
M  V30 2 1 1 3
M  V30 3 1 1 4
M  V30 4 1 1 5
M  V30 5 1 6 7
M  V30 6 1 6 8
M  V30 7 1 6 9
M  V30 8 1 6 10
M  V30 9 1 11 12
M  V30 10 1 11 13
M  V30 11 1 11 14
M  V30 12 1 11 15
M  V30 13 1 16 17
M  V30 14 1 16 18
M  V30 15 1 16 19
M  V30 16 1 16 20
M  V30 17 1 21 22
M  V30 18 1 21 23
M  V30 19 1 21 24
M  V30 20 1 21 25
M  V30 21 1 26 27
M  V30 22 1 26 28
M  V30 23 1 26 29
M  V30 24 1 26 30
M  V30 25 1 31 32
M  V30 26 1 31 33
M  V30 27 1 31 34
M  V30 28 1 31 35
M  V30 29 1 36 37
M  V30 30 1 36 38
M  V30 31 1 36 39
M  V30 32 1 36 40
M  V30 33 1 41 42
M  V30 34 1 41 43
M  V30 35 1 41 44
M  V30 36 1 41 45
M  V30 37 1 46 47
M  V30 38 1 47 48
M  V30 39 1 49 50
M  V30 40 1 50 51
M  V30 41 1 52 53
M  V30 42 1 53 54
M  V30 43 1 55 56
M  V30 44 1 56 57
M  V30 45 1 58 59
M  V30 46 1 59 60
M  V30 47 1 61 62
M  V30 48 1 62 63
M  V30 49 1 64 65
M  V30 50 1 65 66
M  V30 51 1 67 68
M  V30 52 1 68 69
M  V30 53 1 70 71
M  V30 54 1 71 72
M  V30 55 1 73 74
M  V30 56 1 74 75
M  V30 57 1 76 77
M  V30 58 1 77 78
M  V30 59 1 79 80
M  V30 60 1 80 81
M  V30 61 1 82 83
M  V30 62 1 83 84
M  V30 63 1 85 86
M  V30 64 1 86 87
M  V30 65 1 88 89
M  V30 66 1 89 90
M  V30 67 1 91 92
M  V30 68 1 92 93
M  V30 69 1 94 95
M  V30 70 1 95 96
M  V30 71 1 97 98
M  V30 72 1 98 99
M  V30 73 1 2 52
M  V30 74 1 3 55
M  V30 75 1 4 67
M  V30 76 1 5 49
M  V30 77 1 7 70
M  V30 78 1 8 88
M  V30 79 1 9 76
M  V30 80 1 10 91
M  V30 81 1 12 51
M  V30 82 1 13 79
M  V30 83 1 14 69
M  V30 84 1 15 57
M  V30 85 1 17 94
M  V30 86 1 18 85
M  V30 87 1 19 82
M  V30 88 1 20 73
M  V30 89 1 22 46
M  V30 90 1 23 97
M  V30 91 1 24 96
M  V30 92 1 25 58
M  V30 93 1 27 75
M  V30 94 1 28 90
M  V30 95 1 29 60
M  V30 96 1 30 99
M  V30 97 1 32 84
M  V30 98 1 33 87
M  V30 99 1 34 93
M  V30 100 1 35 81
M  V30 101 1 37 48
M  V30 102 1 38 61
M  V30 103 1 39 54
M  V30 104 1 40 64
M  V30 105 1 42 66
M  V30 106 1 43 63
M  V30 107 1 44 78
M  V30 108 1 45 72
M  V30 END BOND
M  V30 END CTAB
M  END

$$$$
