
     RDKit          3D

  0  0  0  0  0  0  0  0  0  0999 V3000
M  V30 BEGIN CTAB
M  V30 COUNTS 99 108 0 0 0
M  V30 BEGIN ATOM
M  V30 1 Pd -1.2789 -4.5919 1.7937 0
M  V30 2 Pb -1.9823 -4.1954 2.3908 0
M  V30 3 Pb -0.5660 -4.9876 1.2134 0
M  V30 4 Pb -0.6616 -4.7846 2.5584 0
M  V30 5 Pb -1.8983 -4.4521 1.0163 0
M  V30 6 Pd 3.2120 0.5036 -6.7943 0
M  V30 7 Pb 2.8995 1.4504 -6.6942 0
M  V30 8 Pb 3.5140 -0.4569 -6.8918 0
M  V30 9 Pb 2.4299 0.2977 -7.3800 0
M  V30 10 Pb 3.9639 0.6423 -6.1546 0
M  V30 11 Pd -2.6061 5.1879 3.9110 0
M  V30 12 Pb -3.3395 4.5493 4.2046 0
M  V30 13 Pb -2.6948 4.8504 2.9761 0
M  V30 14 Pb -1.8718 5.8023 3.6165 0
M  V30 15 Pb -2.5162 5.4892 4.8554 0
M  V30 16 Pd 2.1003 4.2140 1.7394 0
M  V30 17 Pb 1.6606 5.0887 1.9465 0
M  V30 18 Pb 2.0181 3.9428 2.6952 0
M  V30 19 Pb 2.2326 4.4942 0.7869 0
M  V30 20 Pb 2.4977 3.3076 1.5725 0
M  V30 21 Pd -0.0898 3.7095 -3.4710 0
M  V30 22 Pb 0.4682 3.7313 -4.3044 0
M  V30 23 Pb -0.6694 3.7101 -2.6577 0
M  V30 24 Pb 0.6600 4.1532 -2.9783 0
M  V30 25 Pb -0.8550 3.2659 -3.9378 0
M  V30 26 Pd 2.0578 -2.0847 5.4118 0
M  V30 27 Pb 2.1000 -1.1249 5.6768 0
M  V30 28 Pb 1.5615 -2.2917 6.2514 0
M  V30 29 Pb 1.9273 -3.0303 5.1213 0
M  V30 30 Pb 2.4802 -1.8124 4.5438 0
M  V30 31 Pd -4.0542 0.4933 7.1126 0
M  V30 32 Pb -4.2109 -0.2452 6.4522 0
M  V30 33 Pb -3.5640 -0.1577 7.6863 0
M  V30 34 Pb -3.8593 1.2291 7.7542 0
M  V30 35 Pb -4.4396 1.1825 6.4787 0
M  V30 36 Pd -3.0624 -2.8313 -5.5986 0
M  V30 37 Pb -3.3984 -1.9002 -5.4750 0
M  V30 38 Pb -2.6102 -3.7135 -5.7089 0
M  V30 39 Pb -2.6323 -2.5061 -6.4386 0
M  V30 40 Pb -3.4138 -3.1180 -4.7057 0
M  V30 41 Pd 3.6962 -4.6700 -4.1700 0
M  V30 42 Pb 3.8768 -4.1877 -5.0386 0
M  V30 43 Pb 3.4547 -5.1004 -3.3020 0
M  V30 44 Pb 2.9368 -5.1648 -4.5888 0
M  V30 45 Pb 4.4062 -4.1098 -3.7503 0
M  V30 46 Ag -2.5379 -3.8990 2.8059 0
M  V30 47 Fe -3.3978 -2.3473 4.3913 0
M  V30 48 Ag -4.3050 -0.8174 5.9716 0
M  V30 49 Ag -1.4638 2.9249 -4.2141 0
M  V30 50 Fe -2.5707 0.9179 -4.8334 0
M  V30 51 Ag -3.5411 -1.1681 -5.4193 0
M  V30 52 Ag 2.0018 3.6848 3.3957 0
M  V30 53 Fe 2.0418 1.7186 4.7193 0
M  V30 54 Ag 2.0892 -0.3894 5.8025 0
M  V30 55 Ag -2.5071 5.5515 5.5944 0
M  V30 56 Fe -3.0222 3.9637 7.2602 0
M  V30 57 Ag -3.6784 1.8600 8.1006 0
M  V30 58 Ag 4.4875 0.5565 -5.6335 0
M  V30 59 Fe 5.0367 -1.3364 -4.3312 0
M  V30 60 Ag 4.8684 -3.5609 -3.5536 0
M  V30 61 Ag 2.7604 2.6023 1.5280 0
M  V30 62 Fe 2.8255 0.4939 2.6296 0
M  V30 63 Ag 2.7519 -1.5115 3.9087 0
M  V30 64 Ag 1.8247 0.0778 -7.7614 0
M  V30 65 Fe -0.2509 -1.0494 -7.5368 0
M  V30 66 Ag -2.2558 -2.2035 -7.0098 0
M  V30 67 Ag -2.3967 -4.3633 0.4577 0
M  V30 68 Fe -3.0054 -3.8439 -1.7819 0
M  V30 69 Ag -3.6314 -3.3274 -4.0173 0
M  V30 70 Ag -2.1786 -4.3203 -5.7729 0
M  V30 71 Fe 0.0417 -5.0568 -5.3809 0
M  V30 72 Ag 2.3197 -5.4787 -4.8724 0
M  V30 73 Ag 0.0125 -5.2930 0.8443 0
M  V30 74 Fe 1.6094 -5.3546 -0.9127 0
M  V30 75 Ag 3.2035 -5.4178 -2.6721 0
M  V30 76 Ag 1.1108 -2.3832 6.8394 0
M  V30 77 Fe -0.9919 -1.6384 7.6382 0
M  V30 78 Ag -3.1039 -0.6369 8.0252 0
M  V30 79 Ag -2.7666 4.5741 2.2848 0
M  V30 80 Fe -1.9109 4.1634 0.1096 0
M  V30 81 Ag -1.1612 3.6959 -2.0931 0
M  V30 82 Ba 2.6562 2.1601 -6.6439 0
M  V30 83 Ga 1.7687 2.9457 -5.7604 0
M  V30 84 Ba 0.8950 3.7935 -4.9218 0
M  V30 85 Ba 2.3635 4.7311 0.0857 0
M  V30 86 Ga 1.7705 4.5886 -1.2590 0
M  V30 87 Ba 1.2333 4.4914 -2.6309 0
M  V30 88 Ba 3.7521 -1.1715 -7.0021 0
M  V30 89 Ga 3.8587 -2.4777 -6.2969 0
M  V30 90 Ba 4.0150 -3.8295 -5.6942 0
M  V30 91 Ba -3.9212 4.0912 4.3979 0
M  V30 92 Ga -4.2571 2.8930 5.2218 0
M  V30 93 Ba -4.7200 1.7076 6.0017 0
M  V30 94 Ba -1.3170 6.2496 3.3774 0
M  V30 95 Ga -0.0015 6.0071 2.7517 0
M  V30 96 Ba 1.3072 5.7258 2.1279 0
M  V30 97 Ba -0.1569 -4.9882 3.0773 0
M  V30 98 Ga 0.8005 -4.3482 3.9994 0
M  V30 99 Ba 1.7654 -3.7358 4.9324 0
M  V30 END ATOM
M  V30 BEGIN BOND
M  V30 1 1 1 2
M  V30 2 1 1 3
M  V30 3 1 1 4
M  V30 4 1 1 5
M  V30 5 1 6 7
M  V30 6 1 6 8
M  V30 7 1 6 9
M  V30 8 1 6 10
M  V30 9 1 11 12
M  V30 10 1 11 13
M  V30 11 1 11 14
M  V30 12 1 11 15
M  V30 13 1 16 17
M  V30 14 1 16 18
M  V30 15 1 16 19
M  V30 16 1 16 20
M  V30 17 1 21 22
M  V30 18 1 21 23
M  V30 19 1 21 24
M  V30 20 1 21 25
M  V30 21 1 26 27
M  V30 22 1 26 28
M  V30 23 1 26 29
M  V30 24 1 26 30
M  V30 25 1 31 32
M  V30 26 1 31 33
M  V30 27 1 31 34
M  V30 28 1 31 35
M  V30 29 1 36 37
M  V30 30 1 36 38
M  V30 31 1 36 39
M  V30 32 1 36 40
M  V30 33 1 41 42
M  V30 34 1 41 43
M  V30 35 1 41 44
M  V30 36 1 41 45
M  V30 37 1 46 47
M  V30 38 1 47 48
M  V30 39 1 49 50
M  V30 40 1 50 51
M  V30 41 1 52 53
M  V30 42 1 53 54
M  V30 43 1 55 56
M  V30 44 1 56 57
M  V30 45 1 58 59
M  V30 46 1 59 60
M  V30 47 1 61 62
M  V30 48 1 62 63
M  V30 49 1 64 65
M  V30 50 1 65 66
M  V30 51 1 67 68
M  V30 52 1 68 69
M  V30 53 1 70 71
M  V30 54 1 71 72
M  V30 55 1 73 74
M  V30 56 1 74 75
M  V30 57 1 76 77
M  V30 58 1 77 78
M  V30 59 1 79 80
M  V30 60 1 80 81
M  V30 61 1 82 83
M  V30 62 1 83 84
M  V30 63 1 85 86
M  V30 64 1 86 87
M  V30 65 1 88 89
M  V30 66 1 89 90
M  V30 67 1 91 92
M  V30 68 1 92 93
M  V30 69 1 94 95
M  V30 70 1 95 96
M  V30 71 1 97 98
M  V30 72 1 98 99
M  V30 73 1 2 46
M  V30 74 1 3 73
M  V30 75 1 4 97
M  V30 76 1 5 67
M  V30 77 1 7 82
M  V30 78 1 8 88
M  V30 79 1 9 64
M  V30 80 1 10 58
M  V30 81 1 12 91
M  V30 82 1 13 79
M  V30 83 1 14 94
M  V30 84 1 15 55
M  V30 85 1 17 96
M  V30 86 1 18 52
M  V30 87 1 19 85
M  V30 88 1 20 61
M  V30 89 1 22 84
M  V30 90 1 23 81
M  V30 91 1 24 87
M  V30 92 1 25 49
M  V30 93 1 27 54
M  V30 94 1 28 76
M  V30 95 1 29 99
M  V30 96 1 30 63
M  V30 97 1 32 48
M  V30 98 1 33 78
M  V30 99 1 34 57
M  V30 100 1 35 93
M  V30 101 1 37 51
M  V30 102 1 38 70
M  V30 103 1 39 66
M  V30 104 1 40 69
M  V30 105 1 42 90
M  V30 106 1 43 75
M  V30 107 1 44 72
M  V30 108 1 45 60
M  V30 END BOND
M  V30 END CTAB
M  END

$$$$
