
     RDKit          3D

  0  0  0  0  0  0  0  0  0  0999 V3000
M  V30 BEGIN CTAB
M  V30 COUNTS 99 108 0 0 0
M  V30 BEGIN ATOM
M  V30 1 Pd 2.4577 -1.8318 -4.4040 0
M  V30 2 Pb 2.4126 -2.6112 -3.7776 0
M  V30 3 Pb 2.4929 -1.0859 -5.0731 0
M  V30 4 Pb 1.4640 -1.8661 -4.5027 0
M  V30 5 Pb 3.4513 -1.8141 -4.2949 0
M  V30 6 Pd 0.4572 5.6779 -1.5713 0
M  V30 7 Pb 0.0021 4.8105 -1.3667 0
M  V30 8 Pb 0.9187 6.5370 -1.7707 0
M  V30 9 Pb 0.9817 5.6329 -0.7269 0
M  V30 10 Pb 0.2151 5.5791 -2.5486 0
M  V30 11 Pd -1.3444 -3.0319 7.6116 0
M  V30 12 Pb -1.8752 -3.8255 7.3196 0
M  V30 13 Pb -0.8315 -2.1842 7.7290 0
M  V30 14 Pb -2.1834 -2.5292 7.8043 0
M  V30 15 Pb -0.5357 -3.4997 7.2580 0
M  V30 16 Pd -5.3712 0.6705 2.9567 0
M  V30 17 Pb -5.3912 0.4785 3.9374 0
M  V30 18 Pb -5.7438 -0.2399 2.7712 0
M  V30 19 Pb -4.9463 1.5587 3.1363 0
M  V30 20 Pb -5.3326 0.8397 1.9726 0
M  V30 21 Pd -0.3087 2.1468 2.7251 0
M  V30 22 Pb -0.5454 2.2547 1.7583 0
M  V30 23 Pb -0.0847 2.0033 3.6896 0
M  V30 24 Pb -1.1318 2.6579 2.9780 0
M  V30 25 Pb 0.4929 1.6034 2.4719 0
M  V30 26 Pd -4.4573 -2.6728 -1.0187 0
M  V30 27 Pb -5.0141 -2.7782 -0.1935 0
M  V30 28 Pb -4.2650 -3.6564 -1.0435 0
M  V30 29 Pb -3.9124 -2.5492 -1.8474 0
M  V30 30 Pb -4.6432 -1.6900 -0.9992 0
M  V30 31 Pd -0.8777 -6.1088 1.2959 0
M  V30 32 Pb -0.1967 -5.9530 0.5793 0
M  V30 33 Pb -1.6056 -6.2010 0.6145 0
M  V30 34 Pb -0.1827 -5.9816 2.0043 0
M  V30 35 Pb -1.5280 -6.2519 2.0423 0
M  V30 36 Pd 5.7841 1.3334 -1.7239 0
M  V30 37 Pb 5.3171 0.8361 -0.9949 0
M  V30 38 Pb 6.1938 1.8294 -2.4927 0
M  V30 39 Pb 5.5654 2.1552 -1.1947 0
M  V30 40 Pb 5.9470 0.4942 -2.2400 0
M  V30 41 Pd 3.5703 3.8456 -5.6925 0
M  V30 42 Pb 3.8855 4.7743 -5.5259 0
M  V30 43 Pb 3.2624 2.9282 -5.9568 0
M  V30 44 Pb 4.5228 3.5468 -5.6348 0
M  V30 45 Pb 2.6092 4.1669 -5.5914 0
M  V30 46 Ag 2.3785 -3.2171 -3.3353 0
M  V30 47 Fe 1.3367 -4.5055 -1.6324 0
M  V30 48 Ag 0.3368 -5.8346 0.0644 0
M  V30 49 Ag 1.0855 1.1814 2.2857 0
M  V30 50 Fe 3.0116 0.8071 0.9478 0
M  V30 51 Ag 4.9172 0.5289 -0.4417 0
M  V30 52 Ag -0.0020 -3.8574 6.8733 0
M  V30 53 Fe 0.3116 -4.9043 4.7653 0
M  V30 54 Ag 0.2676 -5.8606 2.5922 0
M  V30 55 Ag 1.3656 7.0689 -2.0239 0
M  V30 56 Fe 2.9680 6.8358 -3.7266 0
M  V30 57 Ag 4.0141 5.4785 -5.3357 0
M  V30 58 Ag -2.2297 -4.3829 6.9677 0
M  V30 59 Fe -2.2279 -5.4719 4.8584 0
M  V30 60 Ag -1.9457 -6.3251 2.6609 0
M  V30 61 Ag -2.8073 -2.1190 7.8217 0
M  V30 62 Fe -4.1922 -0.8651 6.3597 0
M  V30 63 Ag -5.3723 0.3047 4.6660 0
M  V30 64 Ag 1.5472 5.5247 -0.2523 0
M  V30 65 Fe 3.5038 4.1812 -0.3070 0
M  V30 66 Ag 5.3069 2.6984 -0.7431 0
M  V30 67 Ag 0.7185 -1.9041 -4.5656 0
M  V30 68 Fe -1.3995 -2.1739 -3.5276 0
M  V30 69 Ag -3.5074 -2.4457 -2.4694 0
M  V30 70 Ag -0.4954 -1.5172 7.6928 0
M  V30 71 Fe -0.1291 0.2494 6.1501 0
M  V30 72 Ag 0.0777 1.8457 4.4051 0
M  V30 73 Ba -0.3450 4.1587 -1.2319 0
M  V30 74 Ga -0.5265 3.2513 -0.0818 0
M  V30 75 Ba -0.7391 2.3093 1.0347 0
M  V30 76 Ba -4.5994 2.2109 3.2714 0
M  V30 77 Ga -3.1860 2.6354 3.2197 0
M  V30 78 Ba -1.7628 3.0244 3.1571 0
M  V30 79 Ba -5.9931 -0.9322 2.6208 0
M  V30 80 Ga -5.7293 -1.8918 1.5301 0
M  V30 81 Ba -5.4411 -2.8246 0.4225 0
M  V30 82 Ba 0.1320 5.4577 -3.2987 0
M  V30 83 Ga 1.0251 4.9386 -4.3833 0
M  V30 84 Ba 1.8913 4.4233 -5.4911 0
M  V30 85 Ba -5.2972 0.9354 1.2303 0
M  V30 86 Ga -5.0422 0.0070 0.1133 0
M  V30 87 Ba -4.7834 -0.9531 -0.9759 0
M  V30 88 Ba 4.1938 -1.8186 -4.1905 0
M  V30 89 Ga 5.1342 -0.9787 -3.4272 0
M  V30 90 Ba 6.0502 -0.1204 -2.6549 0
M  V30 91 Ba 6.4806 2.1320 -3.1197 0
M  V30 92 Ga 5.8869 2.7539 -4.3218 0
M  V30 93 Ba 5.2396 3.3714 -5.4982 0
M  V30 94 Ba 2.4879 -0.5674 -5.6183 0
M  V30 95 Ga 2.7812 0.8632 -5.8482 0
M  V30 96 Ba 3.0295 2.2682 -6.2349 0
M  V30 97 Ba -4.1163 -4.3929 -1.0836 0
M  V30 98 Ga -3.1380 -5.3202 -0.4783 0
M  V30 99 Ba -2.1666 -6.2604 0.1183 0
M  V30 END ATOM
M  V30 BEGIN BOND
M  V30 1 1 1 2
M  V30 2 1 1 3
M  V30 3 1 1 4
M  V30 4 1 1 5
M  V30 5 1 6 7
M  V30 6 1 6 8
M  V30 7 1 6 9
M  V30 8 1 6 10
M  V30 9 1 11 12
M  V30 10 1 11 13
M  V30 11 1 11 14
M  V30 12 1 11 15
M  V30 13 1 16 17
M  V30 14 1 16 18
M  V30 15 1 16 19
M  V30 16 1 16 20
M  V30 17 1 21 22
M  V30 18 1 21 23
M  V30 19 1 21 24
M  V30 20 1 21 25
M  V30 21 1 26 27
M  V30 22 1 26 28
M  V30 23 1 26 29
M  V30 24 1 26 30
M  V30 25 1 31 32
M  V30 26 1 31 33
M  V30 27 1 31 34
M  V30 28 1 31 35
M  V30 29 1 36 37
M  V30 30 1 36 38
M  V30 31 1 36 39
M  V30 32 1 36 40
M  V30 33 1 41 42
M  V30 34 1 41 43
M  V30 35 1 41 44
M  V30 36 1 41 45
M  V30 37 1 46 47
M  V30 38 1 47 48
M  V30 39 1 49 50
M  V30 40 1 50 51
M  V30 41 1 52 53
M  V30 42 1 53 54
M  V30 43 1 55 56
M  V30 44 1 56 57
M  V30 45 1 58 59
M  V30 46 1 59 60
M  V30 47 1 61 62
M  V30 48 1 62 63
M  V30 49 1 64 65
M  V30 50 1 65 66
M  V30 51 1 67 68
M  V30 52 1 68 69
M  V30 53 1 70 71
M  V30 54 1 71 72
M  V30 55 1 73 74
M  V30 56 1 74 75
M  V30 57 1 76 77
M  V30 58 1 77 78
M  V30 59 1 79 80
M  V30 60 1 80 81
M  V30 61 1 82 83
M  V30 62 1 83 84
M  V30 63 1 85 86
M  V30 64 1 86 87
M  V30 65 1 88 89
M  V30 66 1 89 90
M  V30 67 1 91 92
M  V30 68 1 92 93
M  V30 69 1 94 95
M  V30 70 1 95 96
M  V30 71 1 97 98
M  V30 72 1 98 99
M  V30 73 1 2 46
M  V30 74 1 3 94
M  V30 75 1 4 67
M  V30 76 1 5 88
M  V30 77 1 7 73
M  V30 78 1 8 55
M  V30 79 1 9 64
M  V30 80 1 10 82
M  V30 81 1 12 58
M  V30 82 1 13 70
M  V30 83 1 14 61
M  V30 84 1 15 52
M  V30 85 1 17 63
M  V30 86 1 18 79
M  V30 87 1 19 76
M  V30 88 1 20 85
M  V30 89 1 22 75
M  V30 90 1 23 72
M  V30 91 1 24 78
M  V30 92 1 25 49
M  V30 93 1 27 81
M  V30 94 1 28 97
M  V30 95 1 29 69
M  V30 96 1 30 87
M  V30 97 1 32 48
M  V30 98 1 33 99
M  V30 99 1 34 54
M  V30 100 1 35 60
M  V30 101 1 37 51
M  V30 102 1 38 91
M  V30 103 1 39 66
M  V30 104 1 40 90
M  V30 105 1 42 57
M  V30 106 1 43 96
M  V30 107 1 44 93
M  V30 108 1 45 84
M  V30 END BOND
M  V30 END CTAB
M  END

$$$$
