
     RDKit          3D

  0  0  0  0  0  0  0  0  0  0999 V3000
M  V30 BEGIN CTAB
M  V30 COUNTS 99 108 0 0 0
M  V30 BEGIN ATOM
M  V30 1 Pd 0.3305 5.7891 -3.4214 0
M  V30 2 Pb 0.2470 6.4524 -2.6704 0
M  V30 3 Pb 1.3011 5.7091 -3.2093 0
M  V30 4 Pb -0.6349 5.8641 -3.6673 0
M  V30 5 Pb 0.3981 5.0148 -4.0601 0
M  V30 6 Pd 0.6918 -2.0484 -4.4492 0
M  V30 7 Pb 0.8424 -3.0348 -4.3123 0
M  V30 8 Pb 1.6525 -1.9004 -4.2254 0
M  V30 9 Pb -0.2731 -2.2085 -4.6721 0
M  V30 10 Pb 0.5964 -1.0698 -4.6773 0
M  V30 11 Pd 1.5896 -6.4870 -0.7762 0
M  V30 12 Pb 1.6048 -6.2246 -1.7456 0
M  V30 13 Pb 2.5732 -6.3696 -0.6837 0
M  V30 14 Pb 1.5371 -6.7229 0.2104 0
M  V30 15 Pb 0.6059 -6.6174 -0.8485 0
M  V30 16 Pd 3.0234 0.7099 -0.6001 0
M  V30 17 Pb 2.0732 0.5068 -0.8454 0
M  V30 18 Pb 3.3948 0.1233 -1.3163 0
M  V30 19 Pb 3.8364 0.6212 -0.0312 0
M  V30 20 Pb 3.7569 1.3583 -0.7705 0
M  V30 21 Pd 2.6539 -5.0916 4.9401 0
M  V30 22 Pb 3.5236 -5.2134 4.4722 0
M  V30 23 Pb 3.0666 -4.4214 5.5722 0
M  V30 24 Pb 2.2356 -5.7373 4.2789 0
M  V30 25 Pb 1.7795 -4.9099 5.3853 0
M  V30 26 Pd 2.7378 0.5130 6.1652 0
M  V30 27 Pb 3.0926 -0.3732 6.4928 0
M  V30 28 Pb 1.8569 0.2770 6.5683 0
M  V30 29 Pb 2.3956 1.3688 5.7666 0
M  V30 30 Pb 3.5894 0.6468 5.6664 0
M  V30 31 Pd -1.7002 5.3332 1.5288 0
M  V30 32 Pb -1.1187 6.0329 1.1000 0
M  V30 33 Pb -2.3252 4.6095 1.8528 0
M  V30 34 Pb -2.4801 5.7880 1.1170 0
M  V30 35 Pb -0.9354 4.9722 2.0713 0
M  V30 36 Pd -5.6889 3.4019 -0.9589 0
M  V30 37 Pb -5.7116 3.8013 -1.8687 0
M  V30 38 Pb -5.5806 4.3302 -0.6283 0
M  V30 39 Pb -5.8284 2.4940 -1.3544 0
M  V30 40 Pb -5.4488 3.0683 -0.0425 0
M  V30 41 Pd -4.1402 -2.2578 -1.7928 0
M  V30 42 Pb -3.8322 -2.3761 -2.7391 0
M  V30 43 Pb -3.6295 -1.4013 -1.7815 0
M  V30 44 Pb -4.0819 -3.2401 -1.6538 0
M  V30 45 Pb -4.6895 -1.4604 -2.0408 0
M  V30 46 Ag 2.2057 2.0112 5.4197 0
M  V30 47 Fe 0.8602 3.3291 3.9643 0
M  V30 48 Ag -0.3767 4.7831 2.5427 0
M  V30 49 Ag -1.3550 5.8576 -3.8739 0
M  V30 50 Fe -3.5404 5.0940 -3.3631 0
M  V30 51 Ag -5.5414 4.1710 -2.4909 0
M  V30 52 Ag -0.1345 -6.6751 -0.9021 0
M  V30 53 Fe -2.1396 -5.4571 -1.2161 0
M  V30 54 Ag -3.9448 -3.9631 -1.5493 0
M  V30 55 Ag 1.3397 0.5265 -1.0170 0
M  V30 56 Fe -0.8958 -0.1930 -1.3814 0
M  V30 57 Ag -3.1536 -0.8241 -1.7733 0
M  V30 58 Ag 4.3687 0.6167 0.4906 0
M  V30 59 Fe 4.5286 0.6555 2.8528 0
M  V30 60 Ag 4.1632 0.6805 5.1922 0
M  V30 61 Ag 0.4168 4.3974 -4.4970 0
M  V30 62 Fe 0.4922 2.0203 -4.6649 0
M  V30 63 Ag 0.5636 -0.3495 -4.9155 0
M  V30 64 Ag 3.2708 -6.2770 -0.4504 0
M  V30 65 Fe 4.1379 -5.7905 1.6884 0
M  V30 66 Ag 4.0850 -5.3061 3.9963 0
M  V30 67 Ag 1.1959 -4.6077 5.7366 0
M  V30 68 Fe 0.7873 -2.3964 6.4641 0
M  V30 69 Ag 1.2536 -0.1018 6.7814 0
M  V30 70 Ag 2.0140 5.5887 -3.0266 0
M  V30 71 Fe 3.3832 3.9407 -2.0255 0
M  V30 72 Ag 4.1369 1.9592 -0.9801 0
M  V30 73 Ba 3.3673 -3.9301 6.0671 0
M  V30 74 Ga 3.3438 -2.4730 6.3626 0
M  V30 75 Ba 3.3802 -1.0334 6.7329 0
M  V30 76 Ba 1.0069 -3.7733 -4.2860 0
M  V30 77 Ga 1.2809 -4.8738 -3.3316 0
M  V30 78 Ba 1.5712 -6.0514 -2.4792 0
M  V30 79 Ba -2.8253 4.0703 2.0460 0
M  V30 80 Ga -4.0046 3.4651 1.3704 0
M  V30 81 Ba -5.1725 2.9011 0.6415 0
M  V30 82 Ba 1.4521 -6.9367 0.9403 0
M  V30 83 Ga 1.7306 -6.5209 2.3465 0
M  V30 84 Ba 1.9317 -6.2498 3.8006 0
M  V30 85 Ba 0.2290 6.8980 -2.0597 0
M  V30 86 Ga -0.2559 6.7376 -0.6663 0
M  V30 87 Ba -0.7424 6.5722 0.7260 0
M  V30 88 Ba 2.3700 -1.8008 -4.0409 0
M  V30 89 Ga 3.0396 -1.0584 -2.9616 0
M  V30 90 Ba 3.6675 -0.3023 -1.8669 0
M  V30 91 Ba -3.0852 6.1373 0.8651 0
M  V30 92 Ga -4.2982 5.6395 0.2180 0
M  V30 93 Ba -5.4627 5.0334 -0.4259 0
M  V30 94 Ba -5.9779 1.8663 -1.7375 0
M  V30 95 Ga -5.5116 0.4806 -1.9324 0
M  V30 96 Ba -5.1697 -0.9206 -2.2411 0
M  V30 97 Ba -0.9938 -2.3339 -4.8510 0
M  V30 98 Ga -2.2867 -2.3938 -4.1362 0
M  V30 99 Ba -3.5933 -2.4596 -3.4473 0
M  V30 END ATOM
M  V30 BEGIN BOND
M  V30 1 1 1 2
M  V30 2 1 1 3
M  V30 3 1 1 4
M  V30 4 1 1 5
M  V30 5 1 6 7
M  V30 6 1 6 8
M  V30 7 1 6 9
M  V30 8 1 6 10
M  V30 9 1 11 12
M  V30 10 1 11 13
M  V30 11 1 11 14
M  V30 12 1 11 15
M  V30 13 1 16 17
M  V30 14 1 16 18
M  V30 15 1 16 19
M  V30 16 1 16 20
M  V30 17 1 21 22
M  V30 18 1 21 23
M  V30 19 1 21 24
M  V30 20 1 21 25
M  V30 21 1 26 27
M  V30 22 1 26 28
M  V30 23 1 26 29
M  V30 24 1 26 30
M  V30 25 1 31 32
M  V30 26 1 31 33
M  V30 27 1 31 34
M  V30 28 1 31 35
M  V30 29 1 36 37
M  V30 30 1 36 38
M  V30 31 1 36 39
M  V30 32 1 36 40
M  V30 33 1 41 42
M  V30 34 1 41 43
M  V30 35 1 41 44
M  V30 36 1 41 45
M  V30 37 1 46 47
M  V30 38 1 47 48
M  V30 39 1 49 50
M  V30 40 1 50 51
M  V30 41 1 52 53
M  V30 42 1 53 54
M  V30 43 1 55 56
M  V30 44 1 56 57
M  V30 45 1 58 59
M  V30 46 1 59 60
M  V30 47 1 61 62
M  V30 48 1 62 63
M  V30 49 1 64 65
M  V30 50 1 65 66
M  V30 51 1 67 68
M  V30 52 1 68 69
M  V30 53 1 70 71
M  V30 54 1 71 72
M  V30 55 1 73 74
M  V30 56 1 74 75
M  V30 57 1 76 77
M  V30 58 1 77 78
M  V30 59 1 79 80
M  V30 60 1 80 81
M  V30 61 1 82 83
M  V30 62 1 83 84
M  V30 63 1 85 86
M  V30 64 1 86 87
M  V30 65 1 88 89
M  V30 66 1 89 90
M  V30 67 1 91 92
M  V30 68 1 92 93
M  V30 69 1 94 95
M  V30 70 1 95 96
M  V30 71 1 97 98
M  V30 72 1 98 99
M  V30 73 1 2 85
M  V30 74 1 3 70
M  V30 75 1 4 49
M  V30 76 1 5 61
M  V30 77 1 7 76
M  V30 78 1 8 88
M  V30 79 1 9 97
M  V30 80 1 10 63
M  V30 81 1 12 78
M  V30 82 1 13 64
M  V30 83 1 14 82
M  V30 84 1 15 52
M  V30 85 1 17 55
M  V30 86 1 18 90
M  V30 87 1 19 58
M  V30 88 1 20 72
M  V30 89 1 22 66
M  V30 90 1 23 73
M  V30 91 1 24 84
M  V30 92 1 25 67
M  V30 93 1 27 75
M  V30 94 1 28 69
M  V30 95 1 29 46
M  V30 96 1 30 60
M  V30 97 1 32 87
M  V30 98 1 33 79
M  V30 99 1 34 91
M  V30 100 1 35 48
M  V30 101 1 37 51
M  V30 102 1 38 93
M  V30 103 1 39 94
M  V30 104 1 40 81
M  V30 105 1 42 99
M  V30 106 1 43 57
M  V30 107 1 44 54
M  V30 108 1 45 96
M  V30 END BOND
M  V30 END CTAB
M  END

$$$$
