
     RDKit          3D

  0  0  0  0  0  0  0  0  0  0999 V3000
M  V30 BEGIN CTAB
M  V30 COUNTS 99 108 0 0 0
M  V30 BEGIN ATOM
M  V30 1 Pd 3.3619 3.4017 2.9808 0
M  V30 2 Pb 3.2916 2.6857 3.6754 0
M  V30 3 Pb 4.2524 3.0359 2.7058 0
M  V30 4 Pb 2.4412 3.7412 3.1837 0
M  V30 5 Pb 3.4492 4.1269 2.3005 0
M  V30 6 Pd 2.9247 -2.3644 -4.0173 0
M  V30 7 Pb 2.3980 -2.1343 -3.1971 0
M  V30 8 Pb 3.7027 -2.6634 -3.4378 0
M  V30 9 Pb 2.2948 -1.8524 -4.5982 0
M  V30 10 Pb 3.4519 -2.5929 -4.8305 0
M  V30 11 Pd -2.6346 -5.2383 0.5570 0
M  V30 12 Pb -2.6191 -5.2166 1.5763 0
M  V30 13 Pb -2.6245 -5.1502 -0.4376 0
M  V30 14 Pb -3.6014 -4.9922 0.5103 0
M  V30 15 Pb -1.6845 -5.5270 0.5598 0
M  V30 16 Pd -7.2388 0.4439 -0.0614 0
M  V30 17 Pb -7.3856 -0.5232 -0.2456 0
M  V30 18 Pb -7.8176 0.3419 0.7375 0
M  V30 19 Pb -6.7187 0.5150 -0.9159 0
M  V30 20 Pb -6.9493 1.3645 0.2708 0
M  V30 21 Pd -2.2630 -0.7770 -2.3452 0
M  V30 22 Pb -1.3510 -0.9995 -1.9955 0
M  V30 23 Pb -2.4271 -1.7512 -2.5220 0
M  V30 24 Pb -3.1779 -0.5203 -2.6582 0
M  V30 25 Pb -2.0816 0.2005 -2.2398 0
M  V30 26 Pd -4.4281 2.8387 4.4050 0
M  V30 27 Pb -5.2744 2.4563 4.7528 0
M  V30 28 Pb -3.9638 2.4221 5.1833 0
M  V30 29 Pb -3.5756 3.2868 4.1282 0
M  V30 30 Pb -4.9034 3.0961 3.5379 0
M  V30 31 Pd 0.0732 -3.0377 5.3562 0
M  V30 32 Pb 0.8126 -2.4170 5.6092 0
M  V30 33 Pb -0.5475 -2.4078 5.8230 0
M  V30 34 Pb 0.7230 -3.6269 4.8906 0
M  V30 35 Pb -0.6873 -3.6237 5.0122 0
M  V30 36 Pd 2.5237 4.6666 -4.1990 0
M  V30 37 Pb 1.6033 4.6033 -3.8183 0
M  V30 38 Pb 3.4866 4.6402 -4.4722 0
M  V30 39 Pb 2.2472 3.9680 -4.8598 0
M  V30 40 Pb 2.7839 5.2670 -3.4483 0
M  V30 41 Pd 7.6319 0.0796 -2.6508 0
M  V30 42 Pb 7.2380 -0.8216 -2.3996 0
M  V30 43 Pb 7.4782 0.4373 -1.7264 0
M  V30 44 Pb 7.7941 1.0009 -3.0008 0
M  V30 45 Pb 7.8304 -0.2776 -3.5585 0
M  V30 46 Ag 3.2666 2.1426 4.1921 0
M  V30 47 Fe 2.3330 0.1197 5.0116 0
M  V30 48 Ag 1.3364 -1.9030 5.7536 0
M  V30 49 Ag -1.9603 0.9403 -2.2227 0
M  V30 50 Fe -0.5628 2.7628 -2.8234 0
M  V30 51 Ag 0.9438 4.4719 -3.4902 0
M  V30 52 Ag -8.1586 0.3106 1.3908 0
M  V30 53 Fe -7.4805 1.0827 3.5020 0
M  V30 54 Ag -5.9285 2.1503 4.9038 0
M  V30 55 Ag -0.9745 -5.6942 0.6815 0
M  V30 56 Fe 0.4973 -5.1237 2.4272 0
M  V30 57 Ag 1.1082 -4.0686 4.4401 0
M  V30 58 Ag 3.9664 -2.6661 -5.3576 0
M  V30 59 Fe 6.1554 -1.8080 -5.3291 0
M  V30 60 Ag 7.8451 -0.6009 -4.2250 0
M  V30 61 Ag -4.3170 -4.8116 0.3818 0
M  V30 62 Fe -5.9423 -3.1201 0.0292 0
M  V30 63 Ag -7.3924 -1.2682 -0.2761 0
M  V30 64 Ag 1.9534 -1.3455 -5.0309 0
M  V30 65 Fe 1.8567 1.0135 -5.2883 0
M  V30 66 Ag 1.9816 3.3853 -5.2522 0
M  V30 67 Ag 1.7467 4.0183 3.2658 0
M  V30 68 Fe -0.5910 3.7845 3.6308 0
M  V30 69 Ag -2.9388 3.6611 3.9855 0
M  V30 70 Ag 3.5016 4.6646 1.7829 0
M  V30 71 Fe 3.2719 5.2646 -0.4996 0
M  V30 72 Ag 2.9759 5.6266 -2.8240 0
M  V30 73 Ag 4.2314 4.5882 -4.5594 0
M  V30 74 Fe 6.1164 3.2458 -4.0205 0
M  V30 75 Ag 7.7579 1.6722 -3.3322 0
M  V30 76 Ag 4.9034 2.7451 2.4686 0
M  V30 77 Fe 6.1443 1.7268 0.7146 0
M  V30 78 Ag 7.4003 0.7073 -1.0277 0
M  V30 79 Ag -3.6405 2.0001 5.7094 0
M  V30 80 Fe -2.2949 0.0706 6.0298 0
M  V30 81 Ag -0.9443 -1.8766 6.1741 0
M  V30 82 Ba 2.0259 -1.9712 -2.5649 0
M  V30 83 Ga 0.6624 -1.5637 -2.1698 0
M  V30 84 Ba -0.6774 -1.1555 -1.7007 0
M  V30 85 Ba -6.3916 0.5178 -1.5944 0
M  V30 86 Ga -5.1087 0.1208 -2.2113 0
M  V30 87 Ba -3.8461 -0.2589 -2.8791 0
M  V30 88 Ba 4.3178 -2.8268 -3.0105 0
M  V30 89 Ga 5.5982 -2.1435 -2.6414 0
M  V30 90 Ba 6.8872 -1.4873 -2.2536 0
M  V30 91 Ba -2.6192 -5.1992 2.3456 0
M  V30 92 Ga -1.8904 -4.5998 3.5102 0
M  V30 93 Ba -1.2596 -4.0747 4.7644 0
M  V30 94 Ba -6.7176 2.0440 0.5533 0
M  V30 95 Ga -5.9833 2.6051 1.7379 0
M  V30 96 Ba -5.2641 3.2696 2.8775 0
M  V30 97 Ba -2.6449 -5.0155 -1.1741 0
M  V30 98 Ga -2.5804 -3.7540 -1.9396 0
M  V30 99 Ba -2.5155 -2.4813 -2.6866 0
M  V30 END ATOM
M  V30 BEGIN BOND
M  V30 1 1 1 2
M  V30 2 1 1 3
M  V30 3 1 1 4
M  V30 4 1 1 5
M  V30 5 1 6 7
M  V30 6 1 6 8
M  V30 7 1 6 9
M  V30 8 1 6 10
M  V30 9 1 11 12
M  V30 10 1 11 13
M  V30 11 1 11 14
M  V30 12 1 11 15
M  V30 13 1 16 17
M  V30 14 1 16 18
M  V30 15 1 16 19
M  V30 16 1 16 20
M  V30 17 1 21 22
M  V30 18 1 21 23
M  V30 19 1 21 24
M  V30 20 1 21 25
M  V30 21 1 26 27
M  V30 22 1 26 28
M  V30 23 1 26 29
M  V30 24 1 26 30
M  V30 25 1 31 32
M  V30 26 1 31 33
M  V30 27 1 31 34
M  V30 28 1 31 35
M  V30 29 1 36 37
M  V30 30 1 36 38
M  V30 31 1 36 39
M  V30 32 1 36 40
M  V30 33 1 41 42
M  V30 34 1 41 43
M  V30 35 1 41 44
M  V30 36 1 41 45
M  V30 37 1 46 47
M  V30 38 1 47 48
M  V30 39 1 49 50
M  V30 40 1 50 51
M  V30 41 1 52 53
M  V30 42 1 53 54
M  V30 43 1 55 56
M  V30 44 1 56 57
M  V30 45 1 58 59
M  V30 46 1 59 60
M  V30 47 1 61 62
M  V30 48 1 62 63
M  V30 49 1 64 65
M  V30 50 1 65 66
M  V30 51 1 67 68
M  V30 52 1 68 69
M  V30 53 1 70 71
M  V30 54 1 71 72
M  V30 55 1 73 74
M  V30 56 1 74 75
M  V30 57 1 76 77
M  V30 58 1 77 78
M  V30 59 1 79 80
M  V30 60 1 80 81
M  V30 61 1 82 83
M  V30 62 1 83 84
M  V30 63 1 85 86
M  V30 64 1 86 87
M  V30 65 1 88 89
M  V30 66 1 89 90
M  V30 67 1 91 92
M  V30 68 1 92 93
M  V30 69 1 94 95
M  V30 70 1 95 96
M  V30 71 1 97 98
M  V30 72 1 98 99
M  V30 73 1 2 46
M  V30 74 1 3 76
M  V30 75 1 4 67
M  V30 76 1 5 70
M  V30 77 1 7 82
M  V30 78 1 8 88
M  V30 79 1 9 64
M  V30 80 1 10 58
M  V30 81 1 12 91
M  V30 82 1 13 97
M  V30 83 1 14 61
M  V30 84 1 15 55
M  V30 85 1 17 63
M  V30 86 1 18 52
M  V30 87 1 19 85
M  V30 88 1 20 94
M  V30 89 1 22 84
M  V30 90 1 23 99
M  V30 91 1 24 87
M  V30 92 1 25 49
M  V30 93 1 27 54
M  V30 94 1 28 79
M  V30 95 1 29 69
M  V30 96 1 30 96
M  V30 97 1 32 48
M  V30 98 1 33 81
M  V30 99 1 34 57
M  V30 100 1 35 93
M  V30 101 1 37 51
M  V30 102 1 38 73
M  V30 103 1 39 66
M  V30 104 1 40 72
M  V30 105 1 42 90
M  V30 106 1 43 78
M  V30 107 1 44 75
M  V30 108 1 45 60
M  V30 END BOND
M  V30 END CTAB
M  END

$$$$
