
     RDKit          3D

  0  0  0  0  0  0  0  0  0  0999 V3000
M  V30 BEGIN CTAB
M  V30 COUNTS 99 108 0 0 0
M  V30 BEGIN ATOM
M  V30 1 Pd 1.7454 1.0163 4.4450 0
M  V30 2 Pb 0.8086 1.2849 4.6878 0
M  V30 3 Pb 2.0409 1.9705 4.5133 0
M  V30 4 Pb 1.5013 0.0469 4.3999 0
M  V30 5 Pb 2.6791 0.7641 4.1976 0
M  V30 6 Pd 1.3449 -6.0633 0.8593 0
M  V30 7 Pb 1.7617 -5.4629 0.1744 0
M  V30 8 Pb 1.1944 -6.7360 0.1421 0
M  V30 9 Pb 1.3822 -5.3729 1.5844 0
M  V30 10 Pb 0.7481 -6.6080 1.4395 0
M  V30 11 Pd -1.3813 -4.8718 -3.0250 0
M  V30 12 Pb -1.6674 -3.9833 -3.3819 0
M  V30 13 Pb -1.0870 -5.7905 -2.7690 0
M  V30 14 Pb -2.3476 -5.1405 -3.0234 0
M  V30 15 Pb -0.4273 -4.5733 -2.9114 0
M  V30 16 Pd -3.5879 1.0020 2.4918 0
M  V30 17 Pb -3.4950 0.0767 2.8512 0
M  V30 18 Pb -3.7844 1.9407 2.1994 0
M  V30 19 Pb -4.1251 0.6421 1.7227 0
M  V30 20 Pb -3.0464 1.3403 3.2659 0
M  V30 21 Pd 0.5086 0.2104 -4.6141 0
M  V30 22 Pb 1.0801 -0.5979 -4.6783 0
M  V30 23 Pb -0.1199 0.9852 -4.5574 0
M  V30 24 Pb -0.3105 -0.3579 -4.6612 0
M  V30 25 Pb 1.3468 0.7867 -4.4938 0
M  V30 26 Pd -4.8543 -3.9386 0.6977 0
M  V30 27 Pb -5.0876 -3.0241 0.3588 0
M  V30 28 Pb -4.5929 -3.5414 1.5745 0
M  V30 29 Pb -5.0115 -4.3545 -0.2021 0
M  V30 30 Pb -4.5770 -4.8210 1.0710 0
M  V30 31 Pd 3.1305 5.6313 1.3235 0
M  V30 32 Pb 2.1950 6.0024 1.4773 0
M  V30 33 Pb 4.0318 5.2565 1.1087 0
M  V30 34 Pb 3.1643 6.0749 0.4363 0
M  V30 35 Pb 3.1151 5.2359 2.2443 0
M  V30 36 Pd 5.4830 1.2494 -1.5050 0
M  V30 37 Pb 5.5945 2.1709 -1.1241 0
M  V30 38 Pb 4.9380 1.5553 -2.3127 0
M  V30 39 Pb 5.8602 0.9155 -0.6466 0
M  V30 40 Pb 5.4668 0.3233 -1.8593 0
M  V30 41 Pd -2.3186 5.8063 -0.6886 0
M  V30 42 Pb -2.9315 5.3531 -0.0393 0
M  V30 43 Pb -1.7454 6.2811 -1.3449 0
M  V30 44 Pb -1.7622 6.1845 0.0700 0
M  V30 45 Pb -2.7117 5.3293 -1.4675 0
M  V30 46 Ag 3.3706 0.5907 3.9713 0
M  V30 47 Fe 4.8408 0.5671 2.1121 0
M  V30 48 Ag 6.0028 0.6957 0.0506 0
M  V30 49 Ag 0.1572 -6.9265 1.7590 0
M  V30 50 Fe -2.1541 -6.4159 1.7429 0
M  V30 51 Ag -4.2759 -5.4274 1.3862 0
M  V30 52 Ag -0.6750 1.4875 -4.5099 0
M  V30 53 Fe -1.8339 3.2132 -3.3660 0
M  V30 54 Ag -2.8421 4.9395 -2.0888 0
M  V30 55 Ag 3.0633 6.4010 -0.2184 0
M  V30 56 Fe 1.0973 6.7705 -1.4513 0
M  V30 57 Ag -1.2249 6.5939 -1.7650 0
M  V30 58 Ag 1.3827 -0.6943 4.3824 0
M  V30 59 Fe 1.3660 -2.7669 3.2189 0
M  V30 60 Ag 1.3170 -4.8950 2.1618 0
M  V30 61 Ag 1.5825 -1.1367 -4.6355 0
M  V30 62 Fe 3.6474 -1.2183 -3.5146 0
M  V30 63 Ag 5.3694 -0.3352 -2.1791 0
M  V30 64 Ba 1.5020 6.3020 1.6158 0
M  V30 65 Ga 0.1071 6.3389 1.0786 0
M  V30 66 Ba -1.3159 6.4475 0.6322 0
M  V30 67 Ba -3.4860 -0.6076 3.1513 0
M  V30 68 Ga -3.9076 -1.9396 2.6894 0
M  V30 69 Ba -4.3318 -3.2680 2.2196 0
M  V30 70 Ba 2.3014 2.6707 4.5937 0
M  V30 71 Ga 2.6810 3.8113 3.7350 0
M  V30 72 Ba 3.0854 5.0013 2.9585 0
M  V30 73 Ba -4.0087 2.6392 2.0317 0
M  V30 74 Ga -3.6502 3.8148 1.2123 0
M  V30 75 Ba -3.4183 5.0599 0.4518 0
M  V30 76 Ba -1.9251 -3.3579 -3.7052 0
M  V30 77 Ga -1.4060 -2.0596 -4.1707 0
M  V30 78 Ba -0.9506 -0.7453 -4.6574 0
M  V30 79 Ba -4.5278 0.3679 1.1461 0
M  V30 80 Ga -4.8846 -0.9772 0.6405 0
M  V30 81 Ba -5.2418 -2.3220 0.1343 0
M  V30 82 Ba 4.7001 5.0179 0.8659 0
M  V30 83 Ga 5.1983 3.8951 0.0437 0
M  V30 84 Ba 5.7831 2.8114 -0.7735 0
M  V30 85 Ba 0.9858 -7.2011 -0.4006 0
M  V30 86 Ga 0.0936 -6.9044 -1.5294 0
M  V30 87 Ba -0.8064 -6.4642 -2.6041 0
M  V30 88 Ba 1.9661 -5.0332 -0.4092 0
M  V30 89 Ga 1.1714 -4.6703 -1.6073 0
M  V30 90 Ba 0.2860 -4.3724 -2.7590 0
M  V30 91 Ba 0.1211 1.5226 4.8876 0
M  V30 92 Ga -1.2553 1.5304 4.3436 0
M  V30 93 Ba -2.6550 1.5765 3.8648 0
M  V30 94 Ba 1.9783 1.2296 -4.4322 0
M  V30 95 Ga 3.2261 1.4451 -3.6232 0
M  V30 96 Ba 4.5070 1.7797 -2.9122 0
M  V30 97 Ba -3.0843 -5.2917 -2.9801 0
M  V30 98 Ga -4.1017 -5.0020 -1.9442 0
M  V30 99 Ba -5.0769 -4.6869 -0.8757 0
M  V30 END ATOM
M  V30 BEGIN BOND
M  V30 1 1 1 2
M  V30 2 1 1 3
M  V30 3 1 1 4
M  V30 4 1 1 5
M  V30 5 1 6 7
M  V30 6 1 6 8
M  V30 7 1 6 9
M  V30 8 1 6 10
M  V30 9 1 11 12
M  V30 10 1 11 13
M  V30 11 1 11 14
M  V30 12 1 11 15
M  V30 13 1 16 17
M  V30 14 1 16 18
M  V30 15 1 16 19
M  V30 16 1 16 20
M  V30 17 1 21 22
M  V30 18 1 21 23
M  V30 19 1 21 24
M  V30 20 1 21 25
M  V30 21 1 26 27
M  V30 22 1 26 28
M  V30 23 1 26 29
M  V30 24 1 26 30
M  V30 25 1 31 32
M  V30 26 1 31 33
M  V30 27 1 31 34
M  V30 28 1 31 35
M  V30 29 1 36 37
M  V30 30 1 36 38
M  V30 31 1 36 39
M  V30 32 1 36 40
M  V30 33 1 41 42
M  V30 34 1 41 43
M  V30 35 1 41 44
M  V30 36 1 41 45
M  V30 37 1 46 47
M  V30 38 1 47 48
M  V30 39 1 49 50
M  V30 40 1 50 51
M  V30 41 1 52 53
M  V30 42 1 53 54
M  V30 43 1 55 56
M  V30 44 1 56 57
M  V30 45 1 58 59
M  V30 46 1 59 60
M  V30 47 1 61 62
M  V30 48 1 62 63
M  V30 49 1 64 65
M  V30 50 1 65 66
M  V30 51 1 67 68
M  V30 52 1 68 69
M  V30 53 1 70 71
M  V30 54 1 71 72
M  V30 55 1 73 74
M  V30 56 1 74 75
M  V30 57 1 76 77
M  V30 58 1 77 78
M  V30 59 1 79 80
M  V30 60 1 80 81
M  V30 61 1 82 83
M  V30 62 1 83 84
M  V30 63 1 85 86
M  V30 64 1 86 87
M  V30 65 1 88 89
M  V30 66 1 89 90
M  V30 67 1 91 92
M  V30 68 1 92 93
M  V30 69 1 94 95
M  V30 70 1 95 96
M  V30 71 1 97 98
M  V30 72 1 98 99
M  V30 73 1 2 91
M  V30 74 1 3 70
M  V30 75 1 4 58
M  V30 76 1 5 46
M  V30 77 1 7 88
M  V30 78 1 8 85
M  V30 79 1 9 60
M  V30 80 1 10 49
M  V30 81 1 12 76
M  V30 82 1 13 87
M  V30 83 1 14 97
M  V30 84 1 15 90
M  V30 85 1 17 67
M  V30 86 1 18 73
M  V30 87 1 19 79
M  V30 88 1 20 93
M  V30 89 1 22 61
M  V30 90 1 23 52
M  V30 91 1 24 78
M  V30 92 1 25 94
M  V30 93 1 27 81
M  V30 94 1 28 69
M  V30 95 1 29 99
M  V30 96 1 30 51
M  V30 97 1 32 64
M  V30 98 1 33 82
M  V30 99 1 34 55
M  V30 100 1 35 72
M  V30 101 1 37 84
M  V30 102 1 38 96
M  V30 103 1 39 48
M  V30 104 1 40 63
M  V30 105 1 42 75
M  V30 106 1 43 57
M  V30 107 1 44 66
M  V30 108 1 45 54
M  V30 END BOND
M  V30 END CTAB
M  END

$$$$
