
     RDKit          3D

  0  0  0  0  0  0  0  0  0  0999 V3000
M  V30 BEGIN CTAB
M  V30 COUNTS 99 108 0 0 0
M  V30 BEGIN ATOM
M  V30 1 Pd 2.4176 -2.9928 4.0769 0
M  V30 2 Pb 1.4601 -3.1140 3.8064 0
M  V30 3 Pb 2.4216 -3.8834 4.5386 0
M  V30 4 Pb 3.3929 -2.9166 4.2805 0
M  V30 5 Pb 2.4121 -2.0458 3.7515 0
M  V30 6 Pd 5.6252 -6.8436 3.8410 0
M  V30 7 Pb 5.3483 -7.7804 3.6458 0
M  V30 8 Pb 5.8733 -5.8941 4.0338 0
M  V30 9 Pb 4.9821 -6.8082 4.6000 0
M  V30 10 Pb 6.0910 -6.8106 2.9457 0
M  V30 11 Pd -1.3650 3.3042 -5.1601 0
M  V30 12 Pb -2.2561 2.8640 -5.1430 0
M  V30 13 Pb -0.4400 3.6615 -5.0627 0
M  V30 14 Pb -1.7772 4.2153 -5.1162 0
M  V30 15 Pb -0.9651 2.3916 -5.1726 0
M  V30 16 Pd -5.4983 6.3726 -2.4602 0
M  V30 17 Pb -6.2766 6.5046 -1.8549 0
M  V30 18 Pb -5.9710 5.5535 -2.7792 0
M  V30 19 Pb -4.9649 7.0406 -1.9155 0
M  V30 20 Pb -4.7554 6.3124 -3.1339 0
M  V30 21 Pd -0.3743 -2.5868 -0.6392 0
M  V30 22 Pb -0.4890 -1.6317 -0.3610 0
M  V30 23 Pb -0.2636 -3.5241 -0.9723 0
M  V30 24 Pb -0.1956 -2.2711 -1.5677 0
M  V30 25 Pb -0.5554 -2.8873 0.3011 0
M  V30 26 Pd 3.6881 -6.2454 -1.2961 0
M  V30 27 Pb 3.5065 -7.2124 -1.1401 0
M  V30 28 Pb 3.8913 -5.2766 -1.4406 0
M  V30 29 Pb 4.5936 -6.3592 -0.8543 0
M  V30 30 Pb 2.7498 -6.1365 -1.6246 0
M  V30 31 Pd -4.1356 1.7760 -0.8579 0
M  V30 32 Pb -3.2034 1.4707 -0.6422 0
M  V30 33 Pb -4.2279 1.9391 0.1317 0
M  V30 34 Pb -4.0682 1.5895 -1.8388 0
M  V30 35 Pb -5.0397 2.1205 -1.1257 0
M  V30 36 Pd 3.0428 1.5250 0.0902 0
M  V30 37 Pb 2.6279 2.3627 0.4433 0
M  V30 38 Pb 3.1460 1.9932 -0.7868 0
M  V30 39 Pb 2.9043 1.1077 0.9898 0
M  V30 40 Pb 3.4409 0.6929 -0.2974 0
M  V30 41 Pd -3.2061 5.7392 2.3388 0
M  V30 42 Pb -3.2348 6.5643 1.7509 0
M  V30 43 Pb -4.1375 5.9170 2.6410 0
M  V30 44 Pb -3.3028 4.8131 2.6957 0
M  V30 45 Pb -2.2461 5.5865 2.1039 0
M  V30 46 Ag 2.3113 2.9991 0.6804 0
M  V30 47 Fe 0.3816 4.2266 1.3197 0
M  V30 48 Ag -1.5132 5.5030 1.9674 0
M  V30 49 Ag 5.0860 -8.4078 3.3506 0
M  V30 50 Fe 4.1295 -8.7258 1.2231 0
M  V30 51 Ag 3.4501 -7.9026 -0.8754 0
M  V30 52 Ag 4.0868 -4.5586 -1.5378 0
M  V30 53 Fe 3.8755 -2.2423 -1.0546 0
M  V30 54 Ag 3.7374 0.0920 -0.6358 0
M  V30 55 Ag -0.6807 1.7026 -5.1371 0
M  V30 56 Fe -0.3361 -0.1968 -3.7611 0
M  V30 57 Ag -0.0727 -2.0096 -2.2563 0
M  V30 58 Ag -6.7703 6.5834 -1.3094 0
M  V30 59 Fe -6.4180 6.4312 1.0062 0
M  V30 60 Ag -4.8589 6.0590 2.7203 0
M  V30 61 Ag 0.2745 3.7992 -4.8960 0
M  V30 62 Fe 1.8537 3.1899 -3.2339 0
M  V30 63 Ag 3.1602 2.3910 -1.4218 0
M  V30 64 Ba -2.0841 4.9001 -5.0886 0
M  V30 65 Ga -3.1633 5.5808 -4.3408 0
M  V30 66 Ba -4.2147 6.3646 -3.6580 0
M  V30 67 Ba 6.3765 -6.7761 2.2411 0
M  V30 68 Ga 5.8042 -6.6104 0.8732 0
M  V30 69 Ba 5.2702 -6.4468 -0.5103 0
M  V30 70 Ba 2.4599 -4.5106 4.9549 0
M  V30 71 Ga 3.4101 -5.6351 5.0559 0
M  V30 72 Ba 4.4108 -6.7192 5.0720 0
M  V30 73 Ba -4.2139 2.0024 0.8867 0
M  V30 74 Ga -3.8470 3.0321 1.8860 0
M  V30 75 Ba -3.4778 4.0999 2.8432 0
M  V30 76 Ba -4.5603 7.4858 -1.4423 0
M  V30 77 Ga -3.9286 7.3094 -0.0971 0
M  V30 78 Ba -3.2951 7.1380 1.2479 0
M  V30 79 Ba 4.1327 -2.9152 4.3995 0
M  V30 80 Ga 5.1143 -4.0119 4.3112 0
M  V30 81 Ba 6.0131 -5.1752 4.1963 0
M  V30 82 Ba -0.1822 -4.1975 -1.2952 0
M  V30 83 Ga 0.9286 -5.1368 -1.5460 0
M  V30 84 Ba 2.0237 -6.0914 -1.8083 0
M  V30 85 Ba 2.4107 -1.3060 3.6199 0
M  V30 86 Ga 2.6066 -0.2796 2.5768 0
M  V30 87 Ba 2.7617 0.8953 1.6961 0
M  V30 88 Ba -2.8706 2.4522 -5.0563 0
M  V30 89 Ga -3.5169 1.9672 -3.8245 0
M  V30 90 Ba -4.1426 1.4876 -2.5799 0
M  V30 91 Ba -0.5513 -0.9034 -0.1868 0
M  V30 92 Ga -1.5630 0.1667 -0.3233 0
M  V30 93 Ba -2.5036 1.3040 -0.4152 0
M  V30 94 Ba 0.7522 -3.2336 3.5811 0
M  V30 95 Ga 0.0318 -3.1540 2.2916 0
M  V30 96 Ba -0.7086 -3.0820 1.0129 0
M  V30 97 Ba -6.3427 4.9033 -2.8290 0
M  V30 98 Ga -6.0398 3.6099 -2.1740 0
M  V30 99 Ba -5.6631 2.3551 -1.4829 0
M  V30 END ATOM
M  V30 BEGIN BOND
M  V30 1 1 1 2
M  V30 2 1 1 3
M  V30 3 1 1 4
M  V30 4 1 1 5
M  V30 5 1 6 7
M  V30 6 1 6 8
M  V30 7 1 6 9
M  V30 8 1 6 10
M  V30 9 1 11 12
M  V30 10 1 11 13
M  V30 11 1 11 14
M  V30 12 1 11 15
M  V30 13 1 16 17
M  V30 14 1 16 18
M  V30 15 1 16 19
M  V30 16 1 16 20
M  V30 17 1 21 22
M  V30 18 1 21 23
M  V30 19 1 21 24
M  V30 20 1 21 25
M  V30 21 1 26 27
M  V30 22 1 26 28
M  V30 23 1 26 29
M  V30 24 1 26 30
M  V30 25 1 31 32
M  V30 26 1 31 33
M  V30 27 1 31 34
M  V30 28 1 31 35
M  V30 29 1 36 37
M  V30 30 1 36 38
M  V30 31 1 36 39
M  V30 32 1 36 40
M  V30 33 1 41 42
M  V30 34 1 41 43
M  V30 35 1 41 44
M  V30 36 1 41 45
M  V30 37 1 46 47
M  V30 38 1 47 48
M  V30 39 1 49 50
M  V30 40 1 50 51
M  V30 41 1 52 53
M  V30 42 1 53 54
M  V30 43 1 55 56
M  V30 44 1 56 57
M  V30 45 1 58 59
M  V30 46 1 59 60
M  V30 47 1 61 62
M  V30 48 1 62 63
M  V30 49 1 64 65
M  V30 50 1 65 66
M  V30 51 1 67 68
M  V30 52 1 68 69
M  V30 53 1 70 71
M  V30 54 1 71 72
M  V30 55 1 73 74
M  V30 56 1 74 75
M  V30 57 1 76 77
M  V30 58 1 77 78
M  V30 59 1 79 80
M  V30 60 1 80 81
M  V30 61 1 82 83
M  V30 62 1 83 84
M  V30 63 1 85 86
M  V30 64 1 86 87
M  V30 65 1 88 89
M  V30 66 1 89 90
M  V30 67 1 91 92
M  V30 68 1 92 93
M  V30 69 1 94 95
M  V30 70 1 95 96
M  V30 71 1 97 98
M  V30 72 1 98 99
M  V30 73 1 2 94
M  V30 74 1 3 70
M  V30 75 1 4 79
M  V30 76 1 5 85
M  V30 77 1 7 49
M  V30 78 1 8 81
M  V30 79 1 9 72
M  V30 80 1 10 67
M  V30 81 1 12 88
M  V30 82 1 13 61
M  V30 83 1 14 64
M  V30 84 1 15 55
M  V30 85 1 17 58
M  V30 86 1 18 97
M  V30 87 1 19 76
M  V30 88 1 20 66
M  V30 89 1 22 91
M  V30 90 1 23 82
M  V30 91 1 24 57
M  V30 92 1 25 96
M  V30 93 1 27 51
M  V30 94 1 28 52
M  V30 95 1 29 69
M  V30 96 1 30 84
M  V30 97 1 32 93
M  V30 98 1 33 73
M  V30 99 1 34 90
M  V30 100 1 35 99
M  V30 101 1 37 46
M  V30 102 1 38 63
M  V30 103 1 39 87
M  V30 104 1 40 54
M  V30 105 1 42 78
M  V30 106 1 43 60
M  V30 107 1 44 75
M  V30 108 1 45 48
M  V30 END BOND
M  V30 END CTAB
M  END

$$$$
