
     RDKit          3D

  0  0  0  0  0  0  0  0  0  0999 V3000
M  V30 BEGIN CTAB
M  V30 COUNTS 99 108 0 0 0
M  V30 BEGIN ATOM
M  V30 1 Pd -1.1918 5.3647 4.1739 0
M  V30 2 Pb -1.8126 5.9843 3.7007 0
M  V30 3 Pb -0.5948 4.6236 4.5510 0
M  V30 4 Pb -1.9645 5.0150 4.6849 0
M  V30 5 Pb -0.4560 5.7662 3.6269 0
M  V30 6 Pd 3.0126 -4.3891 2.4390 0
M  V30 7 Pb 3.0765 -5.0434 1.6824 0
M  V30 8 Pb 2.3119 -4.9530 2.8683 0
M  V30 9 Pb 2.9479 -3.6952 3.1634 0
M  V30 10 Pb 3.7564 -3.8937 2.0012 0
M  V30 11 Pd -3.1932 -0.8674 -2.2238 0
M  V30 12 Pb -3.6368 -0.1536 -1.6836 0
M  V30 13 Pb -3.5744 -1.5397 -1.5826 0
M  V30 14 Pb -2.8750 -0.1722 -2.8722 0
M  V30 15 Pb -2.7740 -1.5683 -2.8068 0
M  V30 16 Pd -3.3478 4.5431 -2.4424 0
M  V30 17 Pb -3.7942 3.8417 -1.8880 0
M  V30 18 Pb -3.5930 5.2283 -1.7591 0
M  V30 19 Pb -3.0497 3.8381 -3.0879 0
M  V30 20 Pb -2.8767 5.2551 -2.9620 0
M  V30 21 Pd 4.7589 -0.4616 -3.6868 0
M  V30 22 Pb 4.2675 0.1143 -4.3435 0
M  V30 23 Pb 4.4083 -1.3092 -4.0880 0
M  V30 24 Pb 5.0812 0.3774 -3.2608 0
M  V30 25 Pb 5.2055 -0.9707 -2.9584 0
M  V30 26 Pd 0.9951 -4.7365 -2.6785 0
M  V30 27 Pb 1.7138 -4.3387 -3.2572 0
M  V30 28 Pb 0.2670 -5.2201 -2.1956 0
M  V30 29 Pb 1.6710 -5.2185 -2.1154 0
M  V30 30 Pb 0.2890 -4.2845 -3.2256 0
M  V30 31 Pd -0.4468 -0.5427 5.2441 0
M  V30 32 Pb -0.8857 -1.4404 5.2462 0
M  V30 33 Pb -0.0735 0.4122 5.2511 0
M  V30 34 Pb -1.3385 -0.1959 5.4974 0
M  V30 35 Pb 0.4694 -0.9271 5.0807 0
M  V30 36 Pd 1.8121 6.0210 -2.8032 0
M  V30 37 Pb 0.9483 6.3997 -3.1361 0
M  V30 38 Pb 1.7419 6.4834 -1.9192 0
M  V30 39 Pb 2.6745 5.6300 -2.4990 0
M  V30 40 Pb 1.8914 5.4450 -3.6200 0
M  V30 41 Pd -2.2946 -4.8102 1.9428 0
M  V30 42 Pb -3.0033 -4.2734 1.4813 0
M  V30 43 Pb -1.6055 -5.3594 2.4072 0
M  V30 44 Pb -2.4305 -4.3681 2.8279 0
M  V30 45 Pb -2.1444 -5.3077 1.0924 0
M  V30 46 Ag -2.5005 4.6450 5.0287 0
M  V30 47 Fe -2.7005 2.3711 5.5819 0
M  V30 48 Ag -1.9629 0.1436 5.6930 0
M  V30 49 Ag 0.0201 6.1342 3.1768 0
M  V30 50 Fe 0.9032 6.4698 0.9962 0
M  V30 51 Ag 1.7375 6.7375 -1.2128 0
M  V30 52 Ag 3.8998 0.6287 -4.7518 0
M  V30 53 Fe 2.9035 2.7835 -4.6032 0
M  V30 54 Ag 1.9895 4.9356 -4.1657 0
M  V30 55 Ag 5.2572 1.0279 -2.9451 0
M  V30 56 Fe 4.4244 3.2069 -2.5442 0
M  V30 57 Ag 3.3061 5.2808 -2.3184 0
M  V30 58 Ag -2.2732 6.3573 3.2475 0
M  V30 59 Fe -3.1113 6.2029 1.0353 0
M  V30 60 Ag -3.7170 5.7138 -1.2041 0
M  V30 61 Ag 4.3191 -3.5913 1.6172 0
M  V30 62 Fe 4.9933 -2.4459 -0.3439 0
M  V30 63 Ag 5.4935 -1.2932 -2.3521 0
M  V30 64 Ba 3.1557 -5.5050 1.0936 0
M  V30 65 Ga 2.6426 -5.5479 -0.2928 0
M  V30 66 Ba 2.1450 -5.6142 -1.6839 0
M  V30 67 Ba -0.1285 4.0658 4.8153 0
M  V30 68 Ga -0.0338 2.5792 5.0208 0
M  V30 69 Ba 0.2293 1.1240 5.2936 0
M  V30 70 Ba 4.1577 -1.9534 -4.3820 0
M  V30 71 Ga 3.1786 -3.0015 -4.0209 0
M  V30 72 Ba 2.2294 -4.1043 -3.7564 0
M  V30 73 Ba -3.9359 -1.9820 -1.0899 0
M  V30 74 Ga -3.6834 -2.9445 0.0042 0
M  V30 75 Ba -3.5518 -3.9170 1.1107 0
M  V30 76 Ba -2.6636 0.3481 -3.3731 0
M  V30 77 Ga -2.7339 1.8217 -3.4592 0
M  V30 78 Ba -2.8037 3.2953 -3.5457 0
M  V30 79 Ba -0.2877 -5.6247 -1.8966 0
M  V30 80 Ga -1.1471 -5.6316 -0.7015 0
M  V30 81 Ba -2.0405 -5.7014 0.4665 0
M  V30 82 Ba -2.4729 -2.0454 -3.3062 0
M  V30 83 Ga -1.3565 -3.0067 -3.4256 0
M  V30 84 Ba -0.2671 -3.9843 -3.6319 0
M  V30 85 Ba 1.8036 -5.4167 3.1587 0
M  V30 86 Ga 0.3540 -5.5899 2.9866 0
M  V30 87 Ba -1.0959 -5.7406 2.7968 0
M  V30 88 Ba -2.5158 5.8095 -3.3144 0
M  V30 89 Ga -1.1066 6.2411 -3.3717 0
M  V30 90 Ba 0.3059 6.6629 -3.4209 0
M  V30 91 Ba -3.9884 0.3803 -1.2932 0
M  V30 92 Ga -4.0519 1.8507 -1.3721 0
M  V30 93 Ba -4.1132 3.3210 -1.4536 0
M  V30 94 Ba 2.9406 -3.1559 3.6920 0
M  V30 95 Ga 2.0018 -2.1977 4.3227 0
M  V30 96 Ba 1.1765 -1.1923 5.0334 0
M  V30 97 Ba -1.3196 -2.0511 5.2820 0
M  V30 98 Ga -1.8748 -3.0733 4.3752 0
M  V30 99 Ba -2.4726 -4.1295 3.5370 0
M  V30 END ATOM
M  V30 BEGIN BOND
M  V30 1 1 1 2
M  V30 2 1 1 3
M  V30 3 1 1 4
M  V30 4 1 1 5
M  V30 5 1 6 7
M  V30 6 1 6 8
M  V30 7 1 6 9
M  V30 8 1 6 10
M  V30 9 1 11 12
M  V30 10 1 11 13
M  V30 11 1 11 14
M  V30 12 1 11 15
M  V30 13 1 16 17
M  V30 14 1 16 18
M  V30 15 1 16 19
M  V30 16 1 16 20
M  V30 17 1 21 22
M  V30 18 1 21 23
M  V30 19 1 21 24
M  V30 20 1 21 25
M  V30 21 1 26 27
M  V30 22 1 26 28
M  V30 23 1 26 29
M  V30 24 1 26 30
M  V30 25 1 31 32
M  V30 26 1 31 33
M  V30 27 1 31 34
M  V30 28 1 31 35
M  V30 29 1 36 37
M  V30 30 1 36 38
M  V30 31 1 36 39
M  V30 32 1 36 40
M  V30 33 1 41 42
M  V30 34 1 41 43
M  V30 35 1 41 44
M  V30 36 1 41 45
M  V30 37 1 46 47
M  V30 38 1 47 48
M  V30 39 1 49 50
M  V30 40 1 50 51
M  V30 41 1 52 53
M  V30 42 1 53 54
M  V30 43 1 55 56
M  V30 44 1 56 57
M  V30 45 1 58 59
M  V30 46 1 59 60
M  V30 47 1 61 62
M  V30 48 1 62 63
M  V30 49 1 64 65
M  V30 50 1 65 66
M  V30 51 1 67 68
M  V30 52 1 68 69
M  V30 53 1 70 71
M  V30 54 1 71 72
M  V30 55 1 73 74
M  V30 56 1 74 75
M  V30 57 1 76 77
M  V30 58 1 77 78
M  V30 59 1 79 80
M  V30 60 1 80 81
M  V30 61 1 82 83
M  V30 62 1 83 84
M  V30 63 1 85 86
M  V30 64 1 86 87
M  V30 65 1 88 89
M  V30 66 1 89 90
M  V30 67 1 91 92
M  V30 68 1 92 93
M  V30 69 1 94 95
M  V30 70 1 95 96
M  V30 71 1 97 98
M  V30 72 1 98 99
M  V30 73 1 2 58
M  V30 74 1 3 67
M  V30 75 1 4 46
M  V30 76 1 5 49
M  V30 77 1 7 64
M  V30 78 1 8 85
M  V30 79 1 9 94
M  V30 80 1 10 61
M  V30 81 1 12 91
M  V30 82 1 13 73
M  V30 83 1 14 76
M  V30 84 1 15 82
M  V30 85 1 17 93
M  V30 86 1 18 60
M  V30 87 1 19 78
M  V30 88 1 20 88
M  V30 89 1 22 52
M  V30 90 1 23 70
M  V30 91 1 24 55
M  V30 92 1 25 63
M  V30 93 1 27 72
M  V30 94 1 28 79
M  V30 95 1 29 66
M  V30 96 1 30 84
M  V30 97 1 32 97
M  V30 98 1 33 69
M  V30 99 1 34 48
M  V30 100 1 35 96
M  V30 101 1 37 90
M  V30 102 1 38 51
M  V30 103 1 39 57
M  V30 104 1 40 54
M  V30 105 1 42 75
M  V30 106 1 43 87
M  V30 107 1 44 99
M  V30 108 1 45 81
M  V30 END BOND
M  V30 END CTAB
M  END

$$$$
