
     RDKit          3D

  0  0  0  0  0  0  0  0  0  0999 V3000
M  V30 BEGIN CTAB
M  V30 COUNTS 99 108 0 0 0
M  V30 BEGIN ATOM
M  V30 1 Pd -1.0535 -6.5141 4.1321 0
M  V30 2 Pb -0.6650 -5.8982 4.8144 0
M  V30 3 Pb -0.1936 -6.5336 3.6187 0
M  V30 4 Pb -1.5598 -6.9191 3.3518 0
M  V30 5 Pb -1.8824 -6.5590 4.6807 0
M  V30 6 Pd -3.5710 4.4713 -1.9642 0
M  V30 7 Pb -4.2329 3.7233 -2.1429 0
M  V30 8 Pb -3.3432 4.1075 -1.0666 0
M  V30 9 Pb -2.7882 5.1075 -1.8838 0
M  V30 10 Pb -3.8146 4.8781 -2.8390 0
M  V30 11 Pd -3.7719 0.1235 -5.4334 0
M  V30 12 Pb -4.3875 0.4896 -4.7154 0
M  V30 13 Pb -3.4629 -0.6041 -4.8192 0
M  V30 14 Pb -4.0663 0.8513 -6.0450 0
M  V30 15 Pb -3.0347 -0.0858 -6.0726 0
M  V30 16 Pd -4.8259 -4.3981 0.8036 0
M  V30 17 Pb -4.2473 -4.1347 0.0311 0
M  V30 18 Pb -4.3959 -5.3167 0.8414 0
M  V30 19 Pb -5.4188 -4.6487 1.5628 0
M  V30 20 Pb -5.0864 -3.4461 0.9497 0
M  V30 21 Pd -1.4899 0.9450 4.7784 0
M  V30 22 Pb -1.6483 1.8533 4.4014 0
M  V30 23 Pb -2.3139 0.6234 4.3050 0
M  V30 24 Pb -1.2710 0.0400 5.1550 0
M  V30 25 Pb -0.6323 1.2932 5.1883 0
M  V30 26 Pd 3.5090 1.0390 -4.9780 0
M  V30 27 Pb 2.7862 0.9067 -5.6572 0
M  V30 28 Pb 3.5614 0.0447 -4.8749 0
M  V30 29 Pb 3.4512 2.0404 -5.0211 0
M  V30 30 Pb 4.2153 1.1000 -4.2759 0
M  V30 31 Pd 2.2987 4.6715 -1.2717 0
M  V30 32 Pb 1.9361 4.4746 -0.3666 0
M  V30 33 Pb 1.4195 5.1317 -1.4931 0
M  V30 34 Pb 3.1772 4.2805 -0.9942 0
M  V30 35 Pb 2.6180 4.7772 -2.2172 0
M  V30 36 Pd 5.1402 -3.4491 0.4287 0
M  V30 37 Pb 4.8645 -3.6649 -0.5071 0
M  V30 38 Pb 4.6708 -4.2566 0.7862 0
M  V30 39 Pb 5.5471 -2.6120 0.0659 0
M  V30 40 Pb 5.3756 -3.1315 1.3438 0
M  V30 41 Pd 3.7623 2.9413 3.4384 0
M  V30 42 Pb 3.1598 2.7526 4.2290 0
M  V30 43 Pb 4.3063 2.1369 3.6733 0
M  V30 44 Pb 3.1663 3.7002 3.1922 0
M  V30 45 Pb 4.3018 3.0760 2.6053 0
M  V30 46 Ag -5.1830 -2.7419 1.1849 0
M  V30 47 Fe -4.1118 -1.0967 2.5248 0
M  V30 48 Ag -2.9177 0.4352 3.8950 0
M  V30 49 Ag 0.4640 -6.5946 3.2593 0
M  V30 50 Fe 2.3689 -5.7018 2.1546 0
M  V30 51 Ag 4.2882 -4.8484 1.0435 0
M  V30 52 Ag -4.0063 5.0449 -3.5347 0
M  V30 53 Fe -4.2913 3.6326 -5.3941 0
M  V30 54 Ag -4.2476 1.4922 -6.3676 0
M  V30 55 Ag -3.2222 -1.1492 -4.3618 0
M  V30 56 Fe -3.5223 -2.5392 -2.4585 0
M  V30 57 Ag -3.8260 -3.9275 -0.5544 0
M  V30 58 Ag -0.4803 -5.3283 5.2640 0
M  V30 59 Fe -0.7194 -2.9676 5.4172 0
M  V30 60 Ag -1.0314 -0.6104 5.4535 0
M  V30 61 Ag 4.7211 1.0431 -3.7283 0
M  V30 62 Fe 5.3734 -0.3744 -1.9410 0
M  V30 63 Ag 5.7896 -1.9712 -0.2362 0
M  V30 64 Ag -2.5617 -6.5533 4.9750 0
M  V30 65 Fe -4.5847 -5.8193 4.0308 0
M  V30 66 Ag -5.7160 -4.8724 2.2022 0
M  V30 67 Ag 3.6130 -0.6911 -4.7335 0
M  V30 68 Fe 4.1101 -2.3127 -3.0708 0
M  V30 69 Ag 4.6569 -3.7049 -1.2259 0
M  V30 70 Ag -3.0403 3.9170 -0.4168 0
M  V30 71 Fe -0.8137 3.9549 0.3589 0
M  V30 72 Ag 1.5169 4.2810 0.2130 0
M  V30 73 Ag -2.4187 -0.1278 -6.4957 0
M  V30 74 Fe -0.0777 0.2650 -6.4239 0
M  V30 75 Ag 2.2352 0.7183 -6.1314 0
M  V30 76 Ag -1.5974 2.5346 4.1104 0
M  V30 77 Fe 0.2889 3.7744 3.4256 0
M  V30 78 Ag 2.5893 4.1484 3.0624 0
M  V30 79 Ag 5.5288 -2.7761 1.9825 0
M  V30 80 Fe 5.1770 -0.6792 3.0343 0
M  V30 81 Ag 4.6653 1.4977 3.8261 0
M  V30 82 Ba -1.9739 -7.1578 2.7532 0
M  V30 83 Ga -3.0049 -6.5606 1.8465 0
M  V30 84 Ba -4.0375 -5.9889 0.9254 0
M  V30 85 Ba -2.1814 5.5690 -1.8718 0
M  V30 86 Ga -0.6975 5.4848 -1.7315 0
M  V30 87 Ba 0.7888 5.5509 -1.6104 0
M  V30 88 Ba -4.7044 3.1432 -2.3077 0
M  V30 89 Ga -4.7375 1.9805 -3.2474 0
M  V30 90 Ba -4.8183 0.8038 -4.1667 0
M  V30 91 Ba 3.8333 4.0209 -0.7370 0
M  V30 92 Ga 4.2775 3.5792 0.6007 0
M  V30 93 Ba 4.6743 3.1467 1.9562 0
M  V30 94 Ba 0.0060 1.5607 5.5076 0
M  V30 95 Ga 1.3477 2.0759 5.1141 0
M  V30 96 Ba 2.7108 2.6048 4.8263 0
M  V30 97 Ba 3.4291 2.7942 -5.0156 0
M  V30 98 Ga 3.1313 3.8140 -3.9841 0
M  V30 99 Ba 2.8299 4.8194 -2.9395 0
M  V30 END ATOM
M  V30 BEGIN BOND
M  V30 1 1 1 2
M  V30 2 1 1 3
M  V30 3 1 1 4
M  V30 4 1 1 5
M  V30 5 1 6 7
M  V30 6 1 6 8
M  V30 7 1 6 9
M  V30 8 1 6 10
M  V30 9 1 11 12
M  V30 10 1 11 13
M  V30 11 1 11 14
M  V30 12 1 11 15
M  V30 13 1 16 17
M  V30 14 1 16 18
M  V30 15 1 16 19
M  V30 16 1 16 20
M  V30 17 1 21 22
M  V30 18 1 21 23
M  V30 19 1 21 24
M  V30 20 1 21 25
M  V30 21 1 26 27
M  V30 22 1 26 28
M  V30 23 1 26 29
M  V30 24 1 26 30
M  V30 25 1 31 32
M  V30 26 1 31 33
M  V30 27 1 31 34
M  V30 28 1 31 35
M  V30 29 1 36 37
M  V30 30 1 36 38
M  V30 31 1 36 39
M  V30 32 1 36 40
M  V30 33 1 41 42
M  V30 34 1 41 43
M  V30 35 1 41 44
M  V30 36 1 41 45
M  V30 37 1 46 47
M  V30 38 1 47 48
M  V30 39 1 49 50
M  V30 40 1 50 51
M  V30 41 1 52 53
M  V30 42 1 53 54
M  V30 43 1 55 56
M  V30 44 1 56 57
M  V30 45 1 58 59
M  V30 46 1 59 60
M  V30 47 1 61 62
M  V30 48 1 62 63
M  V30 49 1 64 65
M  V30 50 1 65 66
M  V30 51 1 67 68
M  V30 52 1 68 69
M  V30 53 1 70 71
M  V30 54 1 71 72
M  V30 55 1 73 74
M  V30 56 1 74 75
M  V30 57 1 76 77
M  V30 58 1 77 78
M  V30 59 1 79 80
M  V30 60 1 80 81
M  V30 61 1 82 83
M  V30 62 1 83 84
M  V30 63 1 85 86
M  V30 64 1 86 87
M  V30 65 1 88 89
M  V30 66 1 89 90
M  V30 67 1 91 92
M  V30 68 1 92 93
M  V30 69 1 94 95
M  V30 70 1 95 96
M  V30 71 1 97 98
M  V30 72 1 98 99
M  V30 73 1 2 58
M  V30 74 1 3 49
M  V30 75 1 4 82
M  V30 76 1 5 64
M  V30 77 1 7 88
M  V30 78 1 8 70
M  V30 79 1 9 85
M  V30 80 1 10 52
M  V30 81 1 12 90
M  V30 82 1 13 55
M  V30 83 1 14 54
M  V30 84 1 15 73
M  V30 85 1 17 57
M  V30 86 1 18 84
M  V30 87 1 19 66
M  V30 88 1 20 46
M  V30 89 1 22 76
M  V30 90 1 23 48
M  V30 91 1 24 60
M  V30 92 1 25 94
M  V30 93 1 27 75
M  V30 94 1 28 67
M  V30 95 1 29 97
M  V30 96 1 30 61
M  V30 97 1 32 72
M  V30 98 1 33 87
M  V30 99 1 34 91
M  V30 100 1 35 99
M  V30 101 1 37 69
M  V30 102 1 38 51
M  V30 103 1 39 63
M  V30 104 1 40 79
M  V30 105 1 42 96
M  V30 106 1 43 81
M  V30 107 1 44 78
M  V30 108 1 45 93
M  V30 END BOND
M  V30 END CTAB
M  END

$$$$
