
     RDKit          3D

  0  0  0  0  0  0  0  0  0  0999 V3000
M  V30 BEGIN CTAB
M  V30 COUNTS 99 108 0 0 0
M  V30 BEGIN ATOM
M  V30 1 Pd -2.8255 -2.3554 1.7419 0
M  V30 2 Pb -3.6104 -1.7366 1.7956 0
M  V30 3 Pb -2.6418 -2.1795 2.7082 0
M  V30 4 Pb -3.0853 -2.5793 0.8018 0
M  V30 5 Pb -1.9874 -2.9006 1.6761 0
M  V30 6 Pd -1.4460 -4.7675 -3.4135 0
M  V30 7 Pb -0.7159 -4.5368 -2.7701 0
M  V30 8 Pb -0.7516 -5.1137 -4.0396 0
M  V30 9 Pb -2.1457 -4.3554 -2.8295 0
M  V30 10 Pb -2.1282 -4.8843 -4.1330 0
M  V30 11 Pd 1.5729 -1.6405 -4.9900 0
M  V30 12 Pb 1.5000 -0.7283 -4.5904 0
M  V30 13 Pb 1.6332 -2.5636 -5.3641 0
M  V30 14 Pb 1.2393 -1.2982 -5.8675 0
M  V30 15 Pb 1.7711 -2.0223 -4.0860 0
M  V30 16 Pd -4.2977 1.7066 -1.3609 0
M  V30 17 Pb -3.9488 2.0183 -2.2461 0
M  V30 18 Pb -3.8579 2.4917 -0.9190 0
M  V30 19 Pb -4.7572 0.9479 -1.8214 0
M  V30 20 Pb -4.6454 1.3654 -0.4856 0
M  V30 21 Pd 4.4335 3.0232 0.2781 0
M  V30 22 Pb 5.1789 3.1097 0.9303 0
M  V30 23 Pb 4.1563 3.9646 0.4684 0
M  V30 24 Pb 3.7121 2.9352 -0.4063 0
M  V30 25 Pb 4.6748 2.0436 0.1430 0
M  V30 26 Pd -3.3377 -0.8649 -5.9145 0
M  V30 27 Pb -4.0765 -0.9447 -5.2469 0
M  V30 28 Pb -3.2251 0.0967 -5.6605 0
M  V30 29 Pb -2.5704 -0.7834 -6.5545 0
M  V30 30 Pb -3.4621 -1.8346 -6.1313 0
M  V30 31 Pd 0.5729 1.6584 7.2192 0
M  V30 32 Pb 1.2554 2.3901 7.1616 0
M  V30 33 Pb 1.2649 0.9490 7.3462 0
M  V30 34 Pb -0.1373 2.3350 7.0429 0
M  V30 35 Pb -0.1026 0.9295 7.1478 0
M  V30 36 Pd 4.7664 -2.1290 2.8891 0
M  V30 37 Pb 4.5593 -2.3514 3.8380 0
M  V30 38 Pb 4.9116 -1.7280 1.9693 0
M  V30 39 Pb 3.9702 -2.6494 2.5699 0
M  V30 40 Pb 5.5422 -1.6041 3.2226 0
M  V30 41 Pd 0.6593 5.2505 3.5791 0
M  V30 42 Pb -0.0162 5.3204 2.8435 0
M  V30 43 Pb -0.0716 5.0158 4.2171 0
M  V30 44 Pb 1.3171 5.1282 4.3279 0
M  V30 45 Pb 1.3830 5.5368 2.9465 0
M  V30 46 Ag -2.5521 -2.0591 3.4424 0
M  V30 47 Fe -1.5937 -0.8714 5.2593 0
M  V30 48 Ag -0.5806 0.3741 7.0062 0
M  V30 49 Ag -3.5364 3.1053 -0.6247 0
M  V30 50 Fe -2.0302 4.2084 0.8468 0
M  V30 51 Ag -0.5373 5.3490 2.3032 0
M  V30 52 Ag 1.4503 -0.0576 -4.2618 0
M  V30 53 Fe 2.2845 1.4338 -2.6153 0
M  V30 54 Ag 3.1957 2.8468 -0.9406 0
M  V30 55 Ag -1.3300 -3.2635 1.6342 0
M  V30 56 Fe 1.0217 -3.1802 1.9790 0
M  V30 57 Ag 3.3677 -3.0407 2.3433 0
M  V30 58 Ag 1.7321 0.3644 7.3810 0
M  V30 59 Fe 3.0990 -1.0986 6.1084 0
M  V30 60 Ag 4.3801 -2.3620 4.5626 0
M  V30 61 Ag 5.7190 3.0214 1.4285 0
M  V30 62 Fe 6.3141 1.1301 2.6970 0
M  V30 63 Ag 6.0510 -1.0989 3.4060 0
M  V30 64 Ba 1.7370 2.9574 7.0481 0
M  V30 65 Ga 1.7885 3.9963 5.9946 0
M  V30 66 Ba 1.7792 5.0057 4.9115 0
M  V30 67 Ba -3.6875 2.2354 -2.9163 0
M  V30 68 Ga -3.4143 1.5362 -4.1879 0
M  V30 69 Ba -3.1498 0.8130 -5.4478 0
M  V30 70 Ba -5.1089 0.3923 -2.1811 0
M  V30 71 Ga -4.8740 -0.3159 -3.4521 0
M  V30 72 Ba -4.6130 -1.0062 -4.7279 0
M  V30 73 Ba -2.6017 -4.8931 -4.7127 0
M  V30 74 Ga -3.1195 -3.7649 -5.5095 0
M  V30 75 Ba -3.5792 -2.5688 -6.2404 0
M  V30 76 Ba -0.2171 -5.2866 -4.5312 0
M  V30 77 Ga 0.7588 -4.3589 -5.1190 0
M  V30 78 Ba 1.6395 -3.2781 -5.5830 0
M  V30 79 Ba 3.9371 4.6603 0.6420 0
M  V30 80 Ga 2.9190 5.2146 1.5573 0
M  V30 81 Ba 1.9068 5.7876 2.4674 0
M  V30 82 Ba -0.1206 -4.3048 -2.3763 0
M  V30 83 Ga 0.9044 -3.3349 -2.8107 0
M  V30 84 Ba 1.8261 -2.3509 -3.4127 0
M  V30 85 Ba -4.1686 -1.2354 1.8328 0
M  V30 86 Ga -4.5541 -0.0776 1.0005 0
M  V30 87 Ba -4.9189 1.0750 0.1517 0
M  V30 88 Ba -0.6559 2.8407 6.8627 0
M  V30 89 Ga -0.6714 3.8593 5.8019 0
M  V30 90 Ba -0.6032 4.8494 4.7164 0
M  V30 91 Ba 4.8506 1.3076 0.0139 0
M  V30 92 Ga 4.9191 -0.0181 0.7021 0
M  V30 93 Ba 5.0217 -1.3880 1.2934 0
M  V30 94 Ba -3.3600 -2.7484 0.1239 0
M  V30 95 Ga -2.9656 -3.3978 -1.1410 0
M  V30 96 Ba -2.7013 -4.0208 -2.4523 0
M  V30 97 Ba 0.9098 -1.0706 -6.5010 0
M  V30 98 Ga -0.5230 -0.8738 -6.7990 0
M  V30 99 Ba -1.9749 -0.7033 -7.0076 0
M  V30 END ATOM
M  V30 BEGIN BOND
M  V30 1 1 1 2
M  V30 2 1 1 3
M  V30 3 1 1 4
M  V30 4 1 1 5
M  V30 5 1 6 7
M  V30 6 1 6 8
M  V30 7 1 6 9
M  V30 8 1 6 10
M  V30 9 1 11 12
M  V30 10 1 11 13
M  V30 11 1 11 14
M  V30 12 1 11 15
M  V30 13 1 16 17
M  V30 14 1 16 18
M  V30 15 1 16 19
M  V30 16 1 16 20
M  V30 17 1 21 22
M  V30 18 1 21 23
M  V30 19 1 21 24
M  V30 20 1 21 25
M  V30 21 1 26 27
M  V30 22 1 26 28
M  V30 23 1 26 29
M  V30 24 1 26 30
M  V30 25 1 31 32
M  V30 26 1 31 33
M  V30 27 1 31 34
M  V30 28 1 31 35
M  V30 29 1 36 37
M  V30 30 1 36 38
M  V30 31 1 36 39
M  V30 32 1 36 40
M  V30 33 1 41 42
M  V30 34 1 41 43
M  V30 35 1 41 44
M  V30 36 1 41 45
M  V30 37 1 46 47
M  V30 38 1 47 48
M  V30 39 1 49 50
M  V30 40 1 50 51
M  V30 41 1 52 53
M  V30 42 1 53 54
M  V30 43 1 55 56
M  V30 44 1 56 57
M  V30 45 1 58 59
M  V30 46 1 59 60
M  V30 47 1 61 62
M  V30 48 1 62 63
M  V30 49 1 64 65
M  V30 50 1 65 66
M  V30 51 1 67 68
M  V30 52 1 68 69
M  V30 53 1 70 71
M  V30 54 1 71 72
M  V30 55 1 73 74
M  V30 56 1 74 75
M  V30 57 1 76 77
M  V30 58 1 77 78
M  V30 59 1 79 80
M  V30 60 1 80 81
M  V30 61 1 82 83
M  V30 62 1 83 84
M  V30 63 1 85 86
M  V30 64 1 86 87
M  V30 65 1 88 89
M  V30 66 1 89 90
M  V30 67 1 91 92
M  V30 68 1 92 93
M  V30 69 1 94 95
M  V30 70 1 95 96
M  V30 71 1 97 98
M  V30 72 1 98 99
M  V30 73 1 2 85
M  V30 74 1 3 46
M  V30 75 1 4 94
M  V30 76 1 5 55
M  V30 77 1 7 82
M  V30 78 1 8 76
M  V30 79 1 9 96
M  V30 80 1 10 73
M  V30 81 1 12 52
M  V30 82 1 13 78
M  V30 83 1 14 97
M  V30 84 1 15 84
M  V30 85 1 17 67
M  V30 86 1 18 49
M  V30 87 1 19 70
M  V30 88 1 20 87
M  V30 89 1 22 61
M  V30 90 1 23 79
M  V30 91 1 24 54
M  V30 92 1 25 91
M  V30 93 1 27 72
M  V30 94 1 28 69
M  V30 95 1 29 99
M  V30 96 1 30 75
M  V30 97 1 32 64
M  V30 98 1 33 58
M  V30 99 1 34 88
M  V30 100 1 35 48
M  V30 101 1 37 60
M  V30 102 1 38 93
M  V30 103 1 39 57
M  V30 104 1 40 63
M  V30 105 1 42 51
M  V30 106 1 43 90
M  V30 107 1 44 66
M  V30 108 1 45 81
M  V30 END BOND
M  V30 END CTAB
M  END

$$$$
