
     RDKit          3D

  0  0  0  0  0  0  0  0  0  0999 V3000
M  V30 BEGIN CTAB
M  V30 COUNTS 99 108 0 0 0
M  V30 BEGIN ATOM
M  V30 1 Pd -4.7775 -2.0841 -0.1073 0
M  V30 2 Pb -4.8488 -1.1516 0.2392 0
M  V30 3 Pb -5.3497 -1.8170 -0.8835 0
M  V30 4 Pb -4.1788 -2.3723 0.6458 0
M  V30 5 Pb -4.7446 -3.0197 -0.4567 0
M  V30 6 Pd 0.2143 1.9603 -4.4827 0
M  V30 7 Pb 0.4844 2.2111 -3.5517 0
M  V30 8 Pb -0.6498 2.4577 -4.3954 0
M  V30 9 Pb 0.9495 1.2938 -4.5563 0
M  V30 10 Pb -0.0668 1.6788 -5.3960 0
M  V30 11 Pd 4.1920 4.5690 1.8352 0
M  V30 12 Pb 3.4780 4.6890 2.5561 0
M  V30 13 Pb 4.8060 4.3209 1.0883 0
M  V30 14 Pb 4.7637 3.9971 2.4205 0
M  V30 15 Pb 3.6761 5.1606 1.2286 0
M  V30 16 Pd 4.8799 -2.1910 4.2090 0
M  V30 17 Pb 5.6028 -1.5088 4.2262 0
M  V30 18 Pb 4.6977 -1.9475 5.1529 0
M  V30 19 Pb 5.1007 -2.3915 3.2528 0
M  V30 20 Pb 4.0070 -2.7138 4.1719 0
M  V30 21 Pd 3.6456 0.1557 -0.4165 0
M  V30 22 Pb 2.9564 0.8596 -0.6009 0
M  V30 23 Pb 4.3593 0.8420 -0.5785 0
M  V30 24 Pb 4.3164 -0.5541 -0.2006 0
M  V30 25 Pb 2.9455 -0.5410 -0.2563 0
M  V30 26 Pd -0.9275 -1.3856 4.5918 0
M  V30 27 Pb -0.4599 -1.0303 5.3902 0
M  V30 28 Pb -1.5962 -0.6596 4.7492 0
M  V30 29 Pb -1.4622 -1.8399 3.8719 0
M  V30 30 Pb -0.1739 -2.0619 4.4505 0
M  V30 31 Pd -1.5911 3.9910 3.1258 0
M  V30 32 Pb -2.4636 3.7290 2.7257 0
M  V30 33 Pb -1.8059 3.3161 3.8358 0
M  V30 34 Pb -1.4627 4.6605 2.4052 0
M  V30 35 Pb -0.6602 4.2167 3.4835 0
M  V30 36 Pd -1.4924 -4.5369 -3.3927 0
M  V30 37 Pb -1.0232 -4.4052 -2.5216 0
M  V30 38 Pb -2.0103 -4.5360 -4.2489 0
M  V30 39 Pb -0.6819 -4.1478 -3.8277 0
M  V30 40 Pb -2.2958 -4.8938 -2.9212 0
M  V30 41 Pd -4.0040 -0.4772 -5.3848 0
M  V30 42 Pb -3.9385 0.4793 -5.0804 0
M  V30 43 Pb -4.7422 -0.6577 -4.7310 0
M  V30 44 Pb -4.0000 -1.4373 -5.6765 0
M  V30 45 Pb -3.2997 -0.2785 -6.0621 0
M  V30 46 Ag -4.9323 -0.4452 0.4689 0
M  V30 47 Fe -4.0619 1.5337 1.4417 0
M  V30 48 Ag -3.0904 3.4577 2.4284 0
M  V30 49 Ag 2.4675 -1.1073 -0.1350 0
M  V30 50 Fe 0.8937 -2.6832 -0.9591 0
M  V30 51 Ag -0.6695 -4.2079 -1.8922 0
M  V30 52 Ag 4.4417 -1.7007 5.7988 0
M  V30 53 Fe 2.2556 -1.0936 6.4068 0
M  V30 54 Ag -0.0402 -0.8510 5.9702 0
M  V30 55 Ag 3.1893 5.5617 0.8451 0
M  V30 56 Fe 0.8466 5.6971 0.9911 0
M  V30 57 Ag -1.2580 5.1304 1.8736 0
M  V30 58 Ag 5.2414 3.5513 2.7859 0
M  V30 59 Fe 5.7678 1.3737 3.5619 0
M  V30 60 Ag 6.0098 -0.8860 4.2357 0
M  V30 61 Ag 1.3440 0.6674 -4.6366 0
M  V30 62 Fe 0.8619 -1.6430 -4.4198 0
M  V30 63 Ag -0.0671 -3.7957 -4.0696 0
M  V30 64 Ba 0.6685 2.3984 -2.8479 0
M  V30 65 Ga 1.5713 1.8821 -1.7987 0
M  V30 66 Ba 2.4555 1.4094 -0.7138 0
M  V30 67 Ba 5.3136 -2.5012 2.5400 0
M  V30 68 Ga 5.0477 -1.8208 1.2565 0
M  V30 69 Ba 4.7663 -1.1256 -0.0158 0
M  V30 70 Ba -0.3055 1.4232 -6.0548 0
M  V30 71 Ga -1.5215 0.6620 -6.3710 0
M  V30 72 Ba -2.7698 -0.0909 -6.5539 0
M  V30 73 Ba -1.3525 2.7213 -4.3489 0
M  V30 74 Ga -2.6250 2.0038 -4.5956 0
M  V30 75 Ba -3.8383 1.1972 -4.8653 0
M  V30 76 Ba 2.9424 4.7553 3.1077 0
M  V30 77 Ga 1.4746 4.5613 3.3592 0
M  V30 78 Ba 0.0342 4.4140 3.7579 0
M  V30 79 Ba 3.3288 -3.0754 4.1463 0
M  V30 80 Ga 1.8643 -2.7676 4.2554 0
M  V30 81 Ba 0.3769 -2.5924 4.3452 0
M  V30 82 Ba -3.7271 -2.6780 1.1664 0
M  V30 83 Ga -2.7958 -2.3656 2.2739 0
M  V30 84 Ba -1.8374 -2.2944 3.3996 0
M  V30 85 Ba -4.7223 -3.7220 -0.7171 0
M  V30 86 Ga -3.8260 -4.4477 -1.6329 0
M  V30 87 Ba -2.9023 -5.1308 -2.5542 0
M  V30 88 Ba -2.4454 -4.4771 -4.8583 0
M  V30 89 Ga -3.2080 -3.3336 -5.4035 0
M  V30 90 Ba -3.9492 -2.1548 -5.9012 0
M  V30 91 Ba -5.7754 -1.6200 -1.4694 0
M  V30 92 Ga -5.5253 -1.2020 -2.8638 0
M  V30 93 Ba -5.3195 -0.7806 -4.2644 0
M  V30 94 Ba -2.0138 -0.0699 4.9522 0
M  V30 95 Ga -2.0386 1.3688 4.6116 0
M  V30 96 Ba -2.1035 2.8158 4.3150 0
M  V30 97 Ba 5.2249 4.0342 0.5381 0
M  V30 98 Ga 5.0928 2.7168 -0.1153 0
M  V30 99 Ba 4.8727 1.3794 -0.7015 0
M  V30 END ATOM
M  V30 BEGIN BOND
M  V30 1 1 1 2
M  V30 2 1 1 3
M  V30 3 1 1 4
M  V30 4 1 1 5
M  V30 5 1 6 7
M  V30 6 1 6 8
M  V30 7 1 6 9
M  V30 8 1 6 10
M  V30 9 1 11 12
M  V30 10 1 11 13
M  V30 11 1 11 14
M  V30 12 1 11 15
M  V30 13 1 16 17
M  V30 14 1 16 18
M  V30 15 1 16 19
M  V30 16 1 16 20
M  V30 17 1 21 22
M  V30 18 1 21 23
M  V30 19 1 21 24
M  V30 20 1 21 25
M  V30 21 1 26 27
M  V30 22 1 26 28
M  V30 23 1 26 29
M  V30 24 1 26 30
M  V30 25 1 31 32
M  V30 26 1 31 33
M  V30 27 1 31 34
M  V30 28 1 31 35
M  V30 29 1 36 37
M  V30 30 1 36 38
M  V30 31 1 36 39
M  V30 32 1 36 40
M  V30 33 1 41 42
M  V30 34 1 41 43
M  V30 35 1 41 44
M  V30 36 1 41 45
M  V30 37 1 46 47
M  V30 38 1 47 48
M  V30 39 1 49 50
M  V30 40 1 50 51
M  V30 41 1 52 53
M  V30 42 1 53 54
M  V30 43 1 55 56
M  V30 44 1 56 57
M  V30 45 1 58 59
M  V30 46 1 59 60
M  V30 47 1 61 62
M  V30 48 1 62 63
M  V30 49 1 64 65
M  V30 50 1 65 66
M  V30 51 1 67 68
M  V30 52 1 68 69
M  V30 53 1 70 71
M  V30 54 1 71 72
M  V30 55 1 73 74
M  V30 56 1 74 75
M  V30 57 1 76 77
M  V30 58 1 77 78
M  V30 59 1 79 80
M  V30 60 1 80 81
M  V30 61 1 82 83
M  V30 62 1 83 84
M  V30 63 1 85 86
M  V30 64 1 86 87
M  V30 65 1 88 89
M  V30 66 1 89 90
M  V30 67 1 91 92
M  V30 68 1 92 93
M  V30 69 1 94 95
M  V30 70 1 95 96
M  V30 71 1 97 98
M  V30 72 1 98 99
M  V30 73 1 2 46
M  V30 74 1 3 91
M  V30 75 1 4 82
M  V30 76 1 5 85
M  V30 77 1 7 64
M  V30 78 1 8 73
M  V30 79 1 9 61
M  V30 80 1 10 70
M  V30 81 1 12 76
M  V30 82 1 13 97
M  V30 83 1 14 58
M  V30 84 1 15 55
M  V30 85 1 17 60
M  V30 86 1 18 52
M  V30 87 1 19 67
M  V30 88 1 20 79
M  V30 89 1 22 66
M  V30 90 1 23 99
M  V30 91 1 24 69
M  V30 92 1 25 49
M  V30 93 1 27 54
M  V30 94 1 28 94
M  V30 95 1 29 84
M  V30 96 1 30 81
M  V30 97 1 32 48
M  V30 98 1 33 96
M  V30 99 1 34 57
M  V30 100 1 35 78
M  V30 101 1 37 51
M  V30 102 1 38 88
M  V30 103 1 39 63
M  V30 104 1 40 87
M  V30 105 1 42 75
M  V30 106 1 43 93
M  V30 107 1 44 90
M  V30 108 1 45 72
M  V30 END BOND
M  V30 END CTAB
M  END

$$$$
