
     RDKit          3D

  0  0  0  0  0  0  0  0  0  0999 V3000
M  V30 BEGIN CTAB
M  V30 COUNTS 99 108 0 0 0
M  V30 BEGIN ATOM
M  V30 1 Pd -4.7116 -0.5262 -0.3525 0
M  V30 2 Pb -5.0308 -1.2737 0.2267 0
M  V30 3 Pb -4.3626 0.2222 -0.9170 0
M  V30 4 Pb -4.9523 -1.0617 -1.1653 0
M  V30 5 Pb -4.4672 -0.0069 0.4656 0
M  V30 6 Pd 1.3543 8.5832 -0.4241 0
M  V30 7 Pb 1.8357 7.7190 -0.5799 0
M  V30 8 Pb 0.9193 8.5101 -1.3346 0
M  V30 9 Pb 1.5396 8.5681 0.5556 0
M  V30 10 Pb 0.9221 9.4710 -0.2911 0
M  V30 11 Pd 4.3911 -5.8319 2.0649 0
M  V30 12 Pb 3.6377 -5.7100 2.7095 0
M  V30 13 Pb 4.8496 -5.0148 2.4189 0
M  V30 14 Pb 5.1132 -5.9638 1.3849 0
M  V30 15 Pb 3.8779 -6.6090 1.6967 0
M  V30 16 Pd 4.4302 -4.4058 -2.8762 0
M  V30 17 Pb 5.1400 -4.9230 -2.3988 0
M  V30 18 Pb 3.6811 -3.8836 -3.2856 0
M  V30 19 Pb 5.0048 -3.5905 -2.8427 0
M  V30 20 Pb 3.8133 -5.1908 -2.8630 0
M  V30 21 Pd 5.0097 1.7211 1.2520 0
M  V30 22 Pb 4.6975 2.4693 0.6650 0
M  V30 23 Pb 5.2973 0.9449 1.8156 0
M  V30 24 Pb 5.4669 1.2990 0.4715 0
M  V30 25 Pb 4.5110 2.1228 2.0177 0
M  V30 26 Pd -2.8456 -5.0443 -2.9813 0
M  V30 27 Pb -2.2069 -4.3571 -3.3287 0
M  V30 28 Pb -3.4374 -5.7684 -2.6247 0
M  V30 29 Pb -3.6121 -4.4017 -3.0549 0
M  V30 30 Pb -2.0647 -5.6648 -2.9170 0
M  V30 31 Pd -2.6614 -7.3103 1.6272 0
M  V30 32 Pb -3.4100 -6.7049 1.8857 0
M  V30 33 Pb -3.2099 -7.5990 0.8425 0
M  V30 34 Pb -1.8646 -7.8396 1.3338 0
M  V30 35 Pb -2.0893 -6.9572 2.3663 0
M  V30 36 Pd -1.3113 5.6147 3.0579 0
M  V30 37 Pb -0.4831 5.1578 3.3802 0
M  V30 38 Pb -2.1746 6.0312 2.7496 0
M  V30 39 Pb -0.7616 6.4576 3.0483 0
M  V30 40 Pb -1.8136 4.7518 3.1048 0
M  V30 41 Pd -3.6019 7.1383 -1.4759 0
M  V30 42 Pb -2.8882 7.3990 -2.1439 0
M  V30 43 Pb -3.4664 6.1711 -1.6961 0
M  V30 44 Pb -4.1019 6.9224 -0.6402 0
M  V30 45 Pb -3.7792 8.1014 -1.2926 0
M  V30 46 Ag 2.2176 7.0935 -0.7462 0
M  V30 47 Fe 3.3224 5.0591 -0.2099 0
M  V30 48 Ag 4.4520 3.0102 0.2057 0
M  V30 49 Ag -5.2316 -1.8470 0.6629 0
M  V30 50 Fe -4.6854 -4.0302 1.4110 0
M  V30 51 Ag -3.9462 -6.2014 2.0138 0
M  V30 52 Ag 4.1015 2.4280 2.5645 0
M  V30 53 Fe 2.1333 3.6258 3.1342 0
M  V30 54 Ag 0.1438 4.8253 3.6206 0
M  V30 55 Ag 5.4053 -2.9636 -2.7673 0
M  V30 56 Fe 5.6721 -0.9765 -1.4992 0
M  V30 57 Ag 5.7730 0.9456 -0.1123 0
M  V30 58 Ag 3.0692 -3.5334 -3.5440 0
M  V30 59 Fe 0.6960 -3.6106 -3.6255 0
M  V30 60 Ag -1.6611 -3.9034 -3.5726 0
M  V30 61 Ag 3.4205 -7.1503 1.4468 0
M  V30 62 Fe 1.1382 -7.7777 1.2345 0
M  V30 63 Ag -1.2070 -8.1523 1.1505 0
M  V30 64 Ag 0.4701 10.0545 -0.2296 0
M  V30 65 Fe -1.8536 10.0817 -0.5702 0
M  V30 66 Ag -3.7562 8.8238 -1.1308 0
M  V30 67 Ag 3.0227 -5.6685 3.1348 0
M  V30 68 Fe 0.6939 -6.1275 3.1388 0
M  V30 69 Ag -1.5967 -6.6835 2.8596 0
M  V30 70 Ag 3.2820 -5.7176 -2.8451 0
M  V30 71 Fe 0.9293 -6.0306 -2.8572 0
M  V30 72 Ag -1.4436 -6.0826 -2.8833 0
M  V30 73 Ag -4.2800 0.3763 1.0818 0
M  V30 74 Fe -3.2360 2.2454 2.1084 0
M  V30 75 Ag -2.1962 4.1089 3.1493 0
M  V30 76 Ag -4.0776 0.7908 -1.3151 0
M  V30 77 Fe -3.7364 3.1253 -1.5963 0
M  V30 78 Ag -3.3787 5.4541 -1.9024 0
M  V30 79 Ag 5.1602 -4.3798 2.6743 0
M  V30 80 Fe 5.3645 -2.0200 2.4755 0
M  V30 81 Ag 5.5092 0.3368 2.2032 0
M  V30 82 Ba 0.5163 8.4288 -1.9780 0
M  V30 83 Ga -0.8877 8.0196 -2.2852 0
M  V30 84 Ba -2.2946 7.6083 -2.5758 0
M  V30 85 Ba 5.6308 -6.0639 0.8506 0
M  V30 86 Ga 5.6760 -5.6948 -0.5769 0
M  V30 87 Ba 5.6521 -5.2938 -1.9962 0
M  V30 88 Ba 1.5205 8.5600 1.3043 0
M  V30 89 Ga 0.6414 7.7916 2.2147 0
M  V30 90 Ba -0.2546 7.0175 3.1035 0
M  V30 91 Ba -5.1484 -1.4744 -1.7635 0
M  V30 92 Ga -4.6485 -2.6941 -2.4339 0
M  V30 93 Ba -4.1781 -3.9108 -3.1305 0
M  V30 94 Ba -2.8764 6.2325 2.5470 0
M  V30 95 Ga -3.6304 6.5316 1.3077 0
M  V30 96 Ba -4.3627 6.8368 0.0572 0
M  V30 97 Ba -3.8293 -6.3456 -2.3464 0
M  V30 98 Ga -3.7616 -7.0695 -1.0617 0
M  V30 99 Ba -3.6394 -7.7452 0.2449 0
M  V30 END ATOM
M  V30 BEGIN BOND
M  V30 1 1 1 2
M  V30 2 1 1 3
M  V30 3 1 1 4
M  V30 4 1 1 5
M  V30 5 1 6 7
M  V30 6 1 6 8
M  V30 7 1 6 9
M  V30 8 1 6 10
M  V30 9 1 11 12
M  V30 10 1 11 13
M  V30 11 1 11 14
M  V30 12 1 11 15
M  V30 13 1 16 17
M  V30 14 1 16 18
M  V30 15 1 16 19
M  V30 16 1 16 20
M  V30 17 1 21 22
M  V30 18 1 21 23
M  V30 19 1 21 24
M  V30 20 1 21 25
M  V30 21 1 26 27
M  V30 22 1 26 28
M  V30 23 1 26 29
M  V30 24 1 26 30
M  V30 25 1 31 32
M  V30 26 1 31 33
M  V30 27 1 31 34
M  V30 28 1 31 35
M  V30 29 1 36 37
M  V30 30 1 36 38
M  V30 31 1 36 39
M  V30 32 1 36 40
M  V30 33 1 41 42
M  V30 34 1 41 43
M  V30 35 1 41 44
M  V30 36 1 41 45
M  V30 37 1 46 47
M  V30 38 1 47 48
M  V30 39 1 49 50
M  V30 40 1 50 51
M  V30 41 1 52 53
M  V30 42 1 53 54
M  V30 43 1 55 56
M  V30 44 1 56 57
M  V30 45 1 58 59
M  V30 46 1 59 60
M  V30 47 1 61 62
M  V30 48 1 62 63
M  V30 49 1 64 65
M  V30 50 1 65 66
M  V30 51 1 67 68
M  V30 52 1 68 69
M  V30 53 1 70 71
M  V30 54 1 71 72
M  V30 55 1 73 74
M  V30 56 1 74 75
M  V30 57 1 76 77
M  V30 58 1 77 78
M  V30 59 1 79 80
M  V30 60 1 80 81
M  V30 61 1 82 83
M  V30 62 1 83 84
M  V30 63 1 85 86
M  V30 64 1 86 87
M  V30 65 1 88 89
M  V30 66 1 89 90
M  V30 67 1 91 92
M  V30 68 1 92 93
M  V30 69 1 94 95
M  V30 70 1 95 96
M  V30 71 1 97 98
M  V30 72 1 98 99
M  V30 73 1 2 49
M  V30 74 1 3 76
M  V30 75 1 4 91
M  V30 76 1 5 73
M  V30 77 1 7 46
M  V30 78 1 8 82
M  V30 79 1 9 88
M  V30 80 1 10 64
M  V30 81 1 12 67
M  V30 82 1 13 79
M  V30 83 1 14 85
M  V30 84 1 15 61
M  V30 85 1 17 87
M  V30 86 1 18 58
M  V30 87 1 19 55
M  V30 88 1 20 70
M  V30 89 1 22 48
M  V30 90 1 23 81
M  V30 91 1 24 57
M  V30 92 1 25 52
M  V30 93 1 27 60
M  V30 94 1 28 97
M  V30 95 1 29 93
M  V30 96 1 30 72
M  V30 97 1 32 51
M  V30 98 1 33 99
M  V30 99 1 34 63
M  V30 100 1 35 69
M  V30 101 1 37 54
M  V30 102 1 38 94
M  V30 103 1 39 90
M  V30 104 1 40 75
M  V30 105 1 42 84
M  V30 106 1 43 78
M  V30 107 1 44 96
M  V30 108 1 45 66
M  V30 END BOND
M  V30 END CTAB
M  END

$$$$
