
     RDKit          3D

  0  0  0  0  0  0  0  0  0  0999 V3000
M  V30 BEGIN CTAB
M  V30 COUNTS 99 108 0 0 0
M  V30 BEGIN ATOM
M  V30 1 Pd 1.3710 -2.1588 2.7218 0
M  V30 2 Pb 1.0362 -1.3179 3.1438 0
M  V30 3 Pb 1.1290 -3.0181 2.2358 0
M  V30 4 Pb 1.3276 -2.6647 3.5828 0
M  V30 5 Pb 2.1472 -2.7196 2.4632 0
M  V30 6 Pd 4.5941 7.3909 -3.1935 0
M  V30 7 Pb 4.7473 6.8628 -2.3633 0
M  V30 8 Pb 4.2210 7.9949 -3.8933 0
M  V30 9 Pb 4.9359 8.1971 -2.7158 0
M  V30 10 Pb 4.0821 6.6094 -3.5521 0
M  V30 11 Pd -1.6686 -7.9574 7.0464 0
M  V30 12 Pb -1.0035 -7.2469 6.8135 0
M  V30 13 Pb -2.3880 -7.4930 6.5302 0
M  V30 14 Pb -0.9388 -8.6553 7.1565 0
M  V30 15 Pb -2.3446 -8.6166 7.3667 0
M  V30 16 Pd -0.1836 9.9677 -0.3750 0
M  V30 17 Pb -0.0355 10.3192 -1.2991 0
M  V30 18 Pb 0.6568 10.4333 -0.1043 0
M  V30 19 Pb -0.9283 9.4076 -0.7238 0
M  V30 20 Pb -0.2439 9.5001 0.5092 0
M  V30 21 Pd -0.7347 4.7517 0.7065 0
M  V30 22 Pb -0.5490 5.5697 1.2606 0
M  V30 23 Pb 0.2333 4.9753 0.8261 0
M  V30 24 Pb -1.3893 4.1145 0.2926 0
M  V30 25 Pb -0.6572 4.1541 1.5038 0
M  V30 26 Pd -0.8259 -11.4171 3.4170 0
M  V30 27 Pb -1.5216 -11.9555 3.8867 0
M  V30 28 Pb -0.1179 -10.9441 2.8921 0
M  V30 29 Pb -1.5340 -11.0496 2.8142 0
M  V30 30 Pb -0.2624 -11.4079 4.2620 0
M  V30 31 Pd -0.8983 5.6982 -4.2629 0
M  V30 32 Pb -0.8259 4.9241 -4.9138 0
M  V30 33 Pb -1.8371 5.8052 -4.5680 0
M  V30 34 Pb 0.0755 5.5489 -4.0507 0
M  V30 35 Pb -1.1139 6.3728 -3.5508 0
M  V30 36 Pd -2.5761 0.0638 -5.2631 0
M  V30 37 Pb -2.7402 0.4373 -4.3457 0
M  V30 38 Pb -3.1834 0.7656 -5.6159 0
M  V30 39 Pb -2.4988 -0.8649 -4.8967 0
M  V30 40 Pb -2.1307 0.9328 -5.5557 0
M  V30 41 Pd 0.9499 -6.1954 -1.9372 0
M  V30 42 Pb 0.1873 -5.7226 -2.3800 0
M  V30 43 Pb 1.2932 -6.9704 -1.4067 0
M  V30 44 Pb 0.7190 -5.7866 -1.0369 0
M  V30 45 Pb 1.9003 -6.2197 -1.6529 0
M  V30 46 Ag 3.7945 8.5028 -4.2338 0
M  V30 47 Fe 1.9143 9.6960 -3.4244 0
M  V30 48 Ag 0.1879 10.4707 -1.9973 0
M  V30 49 Ag 0.4044 -10.6316 2.4531 0
M  V30 50 Fe 0.9940 -9.0837 0.7510 0
M  V30 51 Ag 1.5307 -7.5176 -0.9519 0
M  V30 52 Ag -2.5078 5.7042 -4.8591 0
M  V30 53 Fe -3.5013 3.6750 -5.5171 0
M  V30 54 Ag -3.6144 1.3401 -5.7980 0
M  V30 55 Ag 2.7026 -3.1424 2.2158 0
M  V30 56 Fe 3.0609 -4.7319 0.5151 0
M  V30 57 Ag 2.5463 -6.1293 -1.3080 0
M  V30 58 Ag -1.8523 3.6136 -0.0268 0
M  V30 59 Fe -2.3644 2.1753 -1.8513 0
M  V30 60 Ag -2.8899 0.7316 -3.6678 0
M  V30 61 Ag -2.4773 -1.5744 -4.6508 0
M  V30 62 Fe -1.3968 -3.4484 -3.6678 0
M  V30 63 Ag -0.3969 -5.3718 -2.6949 0
M  V30 64 Ag -2.8368 -7.3974 5.9361 0
M  V30 65 Fe -2.8216 -8.7707 3.9961 0
M  V30 66 Ag -2.0784 -10.5671 2.6285 0
M  V30 67 Ag 5.0013 8.7983 -2.2792 0
M  V30 68 Fe 3.4149 10.0049 -1.0003 0
M  V30 69 Ag 1.3586 10.6796 -0.0385 0
M  V30 70 Ag 4.6856 6.5278 -1.6991 0
M  V30 71 Fe 2.9382 5.7440 -0.2974 0
M  V30 72 Ag 0.9785 5.0627 0.8560 0
M  V30 73 Ag -2.7980 -9.1893 7.4920 0
M  V30 74 Fe -2.9391 -11.1526 6.2148 0
M  V30 75 Ag -2.0473 -12.2298 4.3309 0
M  V30 76 Ag 0.7734 -0.6667 3.4033 0
M  V30 77 Fe 0.0811 1.5280 2.8215 0
M  V30 78 Ag -0.5767 3.6861 2.0834 0
M  V30 79 Ag 1.3168 -3.0849 4.2035 0
M  V30 80 Fe 0.3828 -4.8884 5.4355 0
M  V30 81 Ag -0.5184 -6.6847 6.7018 0
M  V30 82 Ba -0.8060 4.3406 -5.4072 0
M  V30 83 Ga -1.3136 2.9410 -5.5452 0
M  V30 84 Ba -1.7475 1.5393 -5.8314 0
M  V30 85 Ba -0.4319 -9.2328 7.0961 0
M  V30 86 Ga -0.1655 -10.2631 6.0308 0
M  V30 87 Ba 0.0720 -11.2780 4.9442 0
M  V30 88 Ba -0.2519 9.0967 1.1444 0
M  V30 89 Ga -0.3531 7.6451 1.4182 0
M  V30 90 Ba -0.4543 6.1912 1.6794 0
M  V30 91 Ba 3.6593 6.0121 -3.7246 0
M  V30 92 Ga 2.2105 5.7317 -3.8680 0
M  V30 93 Ba 0.7973 5.3148 -4.0288 0
M  V30 94 Ba -1.4413 8.9546 -1.0198 0
M  V30 95 Ga -1.3846 7.8896 -2.0427 0
M  V30 96 Ba -1.4692 6.8072 -3.0439 0
M  V30 97 Ba 0.8434 -3.6623 1.9362 0
M  V30 98 Ga 0.7683 -4.5478 0.7373 0
M  V30 99 Ba 0.5428 -5.5725 -0.3242 0
M  V30 END ATOM
M  V30 BEGIN BOND
M  V30 1 1 1 2
M  V30 2 1 1 3
M  V30 3 1 1 4
M  V30 4 1 1 5
M  V30 5 1 6 7
M  V30 6 1 6 8
M  V30 7 1 6 9
M  V30 8 1 6 10
M  V30 9 1 11 12
M  V30 10 1 11 13
M  V30 11 1 11 14
M  V30 12 1 11 15
M  V30 13 1 16 17
M  V30 14 1 16 18
M  V30 15 1 16 19
M  V30 16 1 16 20
M  V30 17 1 21 22
M  V30 18 1 21 23
M  V30 19 1 21 24
M  V30 20 1 21 25
M  V30 21 1 26 27
M  V30 22 1 26 28
M  V30 23 1 26 29
M  V30 24 1 26 30
M  V30 25 1 31 32
M  V30 26 1 31 33
M  V30 27 1 31 34
M  V30 28 1 31 35
M  V30 29 1 36 37
M  V30 30 1 36 38
M  V30 31 1 36 39
M  V30 32 1 36 40
M  V30 33 1 41 42
M  V30 34 1 41 43
M  V30 35 1 41 44
M  V30 36 1 41 45
M  V30 37 1 46 47
M  V30 38 1 47 48
M  V30 39 1 49 50
M  V30 40 1 50 51
M  V30 41 1 52 53
M  V30 42 1 53 54
M  V30 43 1 55 56
M  V30 44 1 56 57
M  V30 45 1 58 59
M  V30 46 1 59 60
M  V30 47 1 61 62
M  V30 48 1 62 63
M  V30 49 1 64 65
M  V30 50 1 65 66
M  V30 51 1 67 68
M  V30 52 1 68 69
M  V30 53 1 70 71
M  V30 54 1 71 72
M  V30 55 1 73 74
M  V30 56 1 74 75
M  V30 57 1 76 77
M  V30 58 1 77 78
M  V30 59 1 79 80
M  V30 60 1 80 81
M  V30 61 1 82 83
M  V30 62 1 83 84
M  V30 63 1 85 86
M  V30 64 1 86 87
M  V30 65 1 88 89
M  V30 66 1 89 90
M  V30 67 1 91 92
M  V30 68 1 92 93
M  V30 69 1 94 95
M  V30 70 1 95 96
M  V30 71 1 97 98
M  V30 72 1 98 99
M  V30 73 1 2 76
M  V30 74 1 3 97
M  V30 75 1 4 79
M  V30 76 1 5 55
M  V30 77 1 7 70
M  V30 78 1 8 46
M  V30 79 1 9 67
M  V30 80 1 10 91
M  V30 81 1 12 81
M  V30 82 1 13 64
M  V30 83 1 14 85
M  V30 84 1 15 73
M  V30 85 1 17 48
M  V30 86 1 18 69
M  V30 87 1 19 94
M  V30 88 1 20 88
M  V30 89 1 22 90
M  V30 90 1 23 72
M  V30 91 1 24 58
M  V30 92 1 25 78
M  V30 93 1 27 75
M  V30 94 1 28 49
M  V30 95 1 29 66
M  V30 96 1 30 87
M  V30 97 1 32 82
M  V30 98 1 33 52
M  V30 99 1 34 93
M  V30 100 1 35 96
M  V30 101 1 37 60
M  V30 102 1 38 54
M  V30 103 1 39 61
M  V30 104 1 40 84
M  V30 105 1 42 63
M  V30 106 1 43 51
M  V30 107 1 44 99
M  V30 108 1 45 57
M  V30 END BOND
M  V30 END CTAB
M  END

$$$$
