
     RDKit          3D

  0  0  0  0  0  0  0  0  0  0999 V3000
M  V30 BEGIN CTAB
M  V30 COUNTS 99 108 0 0 0
M  V30 BEGIN ATOM
M  V30 1 Pd 4.3658 -2.5971 -1.0230 0
M  V30 2 Pb 4.5248 -3.2210 -1.7849 0
M  V30 3 Pb 4.1736 -1.9639 -0.2735 0
M  V30 4 Pb 5.2533 -2.7830 -0.5974 0
M  V30 5 Pb 3.4479 -2.4785 -1.3979 0
M  V30 6 Pd 4.7000 -3.7320 3.7229 0
M  V30 7 Pb 4.9019 -4.6886 3.9124 0
M  V30 8 Pb 5.5215 -3.6507 3.1559 0
M  V30 9 Pb 4.4550 -2.8031 3.4560 0
M  V30 10 Pb 3.8058 -3.8441 4.1889 0
M  V30 11 Pd 0.9503 2.3423 -3.2823 0
M  V30 12 Pb 0.2641 2.6613 -3.9362 0
M  V30 13 Pb 1.5780 2.0075 -2.5826 0
M  V30 14 Pb 0.8640 3.1763 -2.7294 0
M  V30 15 Pb 1.1251 1.5471 -3.8729 0
M  V30 16 Pd -2.0897 8.1811 1.1064 0
M  V30 17 Pb -2.9450 8.5523 1.4586 0
M  V30 18 Pb -2.4383 8.3312 0.1892 0
M  V30 19 Pb -1.9010 7.7649 2.0055 0
M  V30 20 Pb -1.2839 7.7359 0.7125 0
M  V30 21 Pd 0.6413 -3.4000 -4.1207 0
M  V30 22 Pb -0.2784 -3.0235 -4.0296 0
M  V30 23 Pb 0.3057 -4.2298 -3.6748 0
M  V30 24 Pb 0.9570 -2.5468 -4.5425 0
M  V30 25 Pb 1.5637 -3.7874 -4.1875 0
M  V30 26 Pd -0.4067 -5.8463 2.6324 0
M  V30 27 Pb 0.1859 -6.6301 2.7960 0
M  V30 28 Pb -1.0232 -5.0700 2.4799 0
M  V30 29 Pb 0.0352 -5.3843 3.4171 0
M  V30 30 Pb -0.7026 -6.2371 1.7636 0
M  V30 31 Pd -4.1492 2.5100 -2.6210 0
M  V30 32 Pb -4.0320 1.5347 -2.7942 0
M  V30 33 Pb -4.6092 2.2758 -1.7557 0
M  V30 34 Pb -3.6324 2.7176 -3.4520 0
M  V30 35 Pb -4.2544 3.4984 -2.5174 0
M  V30 36 Pd -0.1463 -0.6650 0.8651 0
M  V30 37 Pb -0.3066 -0.1001 1.6721 0
M  V30 38 Pb 0.6556 -0.1230 0.6124 0
M  V30 39 Pb 0.0066 -1.1894 0.0324 0
M  V30 40 Pb -0.8991 -1.2642 1.1382 0
M  V30 41 Pd -3.7646 3.3702 2.8426 0
M  V30 42 Pb -3.2411 4.1288 3.2675 0
M  V30 43 Pb -4.5791 3.9436 2.8507 0
M  V30 44 Pb -4.2644 2.7022 2.2869 0
M  V30 45 Pb -2.9603 2.7830 2.9582 0
M  V30 46 Ag 0.8951 3.8008 -2.3071 0
M  V30 47 Fe 0.0474 5.5721 -0.9648 0
M  V30 48 Ag -0.7091 7.3778 0.3863 0
M  V30 49 Ag 0.0178 -4.8150 -3.3045 0
M  V30 50 Fe -0.4686 -5.7483 -1.1769 0
M  V30 51 Ag -0.8327 -6.4534 1.0599 0
M  V30 52 Ag 4.8623 -5.4257 3.9754 0
M  V30 53 Fe 2.9790 -6.7797 3.5627 0
M  V30 54 Ag 0.7237 -7.1132 2.9657 0
M  V30 55 Ag -0.9731 -2.7631 -3.9339 0
M  V30 56 Fe -2.4603 -0.9808 -3.4443 0
M  V30 57 Ag -3.9359 0.8109 -2.9540 0
M  V30 58 Ag -3.6385 8.6098 1.7103 0
M  V30 59 Fe -4.9306 6.7839 2.4370 0
M  V30 60 Ag -5.0929 4.4785 2.8799 0
M  V30 61 Ag -2.7913 8.2353 -0.4576 0
M  V30 62 Fe -3.5883 6.3343 -1.6295 0
M  V30 63 Ag -4.2614 4.2485 -2.5365 0
M  V30 64 Ba -0.4291 0.3286 2.2728 0
M  V30 65 Ga -1.4163 1.3540 2.6634 0
M  V30 66 Ba -2.3489 2.3883 3.1516 0
M  V30 67 Ba 3.1270 -3.9309 4.5301 0
M  V30 68 Ga 1.7775 -4.4928 4.2253 0
M  V30 69 Ba 0.4075 -5.0358 3.9847 0
M  V30 70 Ba 4.0478 -1.5107 0.3104 0
M  V30 71 Ga 4.1385 -1.7554 1.7594 0
M  V30 72 Ba 4.2671 -2.1368 3.1754 0
M  V30 73 Ba -4.9279 2.0134 -1.1202 0
M  V30 74 Ga -4.7851 2.1563 0.3488 0
M  V30 75 Ba -4.6746 2.2731 1.8230 0
M  V30 76 Ba -1.8318 7.3725 2.6536 0
M  V30 77 Ga -2.3342 6.0394 3.1016 0
M  V30 78 Ba -2.8333 4.7078 3.5575 0
M  V30 79 Ba 5.8799 -2.9247 -0.2068 0
M  V30 80 Ga 6.0490 -3.2571 1.2233 0
M  V30 81 Ba 6.0864 -3.5814 2.6648 0
M  V30 82 Ba 2.7522 -2.4547 -1.6741 0
M  V30 83 Ga 1.4487 -2.0022 -1.1632 0
M  V30 84 Ba 0.1690 -1.5324 -0.6098 0
M  V30 85 Ba -0.2827 2.8661 -4.4074 0
M  V30 86 Ga -1.7509 2.8913 -4.2629 0
M  V30 87 Ba -3.2107 2.8914 -4.0479 0
M  V30 88 Ba -1.5119 -4.5109 2.3555 0
M  V30 89 Ga -1.4683 -3.1200 1.8596 0
M  V30 90 Ba -1.4431 -1.7278 1.3663 0
M  V30 91 Ba 1.2958 1.0031 -4.3689 0
M  V30 92 Ga 1.2164 -0.4621 -4.5647 0
M  V30 93 Ba 1.1908 -1.9105 -4.8696 0
M  V30 94 Ba 4.5386 -3.6614 -2.3890 0
M  V30 95 Ga 3.4364 -3.9080 -3.3380 0
M  V30 96 Ba 2.2598 -4.0726 -4.2132 0
M  V30 97 Ba 1.9976 1.7871 -2.0039 0
M  V30 98 Ga 1.6645 1.0098 -0.7965 0
M  V30 99 Ba 1.2817 0.2285 0.3936 0
M  V30 END ATOM
M  V30 BEGIN BOND
M  V30 1 1 1 2
M  V30 2 1 1 3
M  V30 3 1 1 4
M  V30 4 1 1 5
M  V30 5 1 6 7
M  V30 6 1 6 8
M  V30 7 1 6 9
M  V30 8 1 6 10
M  V30 9 1 11 12
M  V30 10 1 11 13
M  V30 11 1 11 14
M  V30 12 1 11 15
M  V30 13 1 16 17
M  V30 14 1 16 18
M  V30 15 1 16 19
M  V30 16 1 16 20
M  V30 17 1 21 22
M  V30 18 1 21 23
M  V30 19 1 21 24
M  V30 20 1 21 25
M  V30 21 1 26 27
M  V30 22 1 26 28
M  V30 23 1 26 29
M  V30 24 1 26 30
M  V30 25 1 31 32
M  V30 26 1 31 33
M  V30 27 1 31 34
M  V30 28 1 31 35
M  V30 29 1 36 37
M  V30 30 1 36 38
M  V30 31 1 36 39
M  V30 32 1 36 40
M  V30 33 1 41 42
M  V30 34 1 41 43
M  V30 35 1 41 44
M  V30 36 1 41 45
M  V30 37 1 46 47
M  V30 38 1 47 48
M  V30 39 1 49 50
M  V30 40 1 50 51
M  V30 41 1 52 53
M  V30 42 1 53 54
M  V30 43 1 55 56
M  V30 44 1 56 57
M  V30 45 1 58 59
M  V30 46 1 59 60
M  V30 47 1 61 62
M  V30 48 1 62 63
M  V30 49 1 64 65
M  V30 50 1 65 66
M  V30 51 1 67 68
M  V30 52 1 68 69
M  V30 53 1 70 71
M  V30 54 1 71 72
M  V30 55 1 73 74
M  V30 56 1 74 75
M  V30 57 1 76 77
M  V30 58 1 77 78
M  V30 59 1 79 80
M  V30 60 1 80 81
M  V30 61 1 82 83
M  V30 62 1 83 84
M  V30 63 1 85 86
M  V30 64 1 86 87
M  V30 65 1 88 89
M  V30 66 1 89 90
M  V30 67 1 91 92
M  V30 68 1 92 93
M  V30 69 1 94 95
M  V30 70 1 95 96
M  V30 71 1 97 98
M  V30 72 1 98 99
M  V30 73 1 2 94
M  V30 74 1 3 70
M  V30 75 1 4 79
M  V30 76 1 5 82
M  V30 77 1 7 52
M  V30 78 1 8 81
M  V30 79 1 9 72
M  V30 80 1 10 67
M  V30 81 1 12 85
M  V30 82 1 13 97
M  V30 83 1 14 46
M  V30 84 1 15 91
M  V30 85 1 17 58
M  V30 86 1 18 61
M  V30 87 1 19 76
M  V30 88 1 20 48
M  V30 89 1 22 55
M  V30 90 1 23 49
M  V30 91 1 24 93
M  V30 92 1 25 96
M  V30 93 1 27 54
M  V30 94 1 28 88
M  V30 95 1 29 69
M  V30 96 1 30 51
M  V30 97 1 32 57
M  V30 98 1 33 73
M  V30 99 1 34 87
M  V30 100 1 35 63
M  V30 101 1 37 64
M  V30 102 1 38 99
M  V30 103 1 39 84
M  V30 104 1 40 90
M  V30 105 1 42 78
M  V30 106 1 43 60
M  V30 107 1 44 75
M  V30 108 1 45 66
M  V30 END BOND
M  V30 END CTAB
M  END

$$$$
