
     RDKit          3D

  0  0  0  0  0  0  0  0  0  0999 V3000
M  V30 BEGIN CTAB
M  V30 COUNTS 99 108 0 0 0
M  V30 BEGIN ATOM
M  V30 1 Pd -3.2759 -3.4208 2.5189 0
M  V30 2 Pb -3.5562 -3.3872 1.5619 0
M  V30 3 Pb -4.1029 -2.8990 2.7178 0
M  V30 4 Pb -2.4825 -3.9797 2.2663 0
M  V30 5 Pb -2.9731 -3.3543 3.4706 0
M  V30 6 Pd 2.5871 -4.1274 2.0008 0
M  V30 7 Pb 3.5214 -3.8571 2.1982 0
M  V30 8 Pb 2.3216 -3.1930 2.2498 0
M  V30 9 Pb 1.6508 -4.4438 1.8315 0
M  V30 10 Pb 2.9694 -4.9241 1.5344 0
M  V30 11 Pd 6.0471 0.7959 -0.9867 0
M  V30 12 Pb 5.5731 1.3277 -1.6858 0
M  V30 13 Pb 5.3383 1.0101 -0.3070 0
M  V30 14 Pb 6.6251 0.3483 -1.6646 0
M  V30 15 Pb 6.4878 0.2472 -0.2880 0
M  V30 16 Pd -0.5751 -0.8635 -3.7259 0
M  V30 17 Pb 0.3738 -0.6389 -3.9586 0
M  V30 18 Pb -0.9115 -0.0216 -4.1546 0
M  V30 19 Pb -0.2661 -1.7088 -3.2953 0
M  V30 20 Pb -1.4956 -1.1402 -3.4633 0
M  V30 21 Pd 1.6736 3.1820 -0.3348 0
M  V30 22 Pb 1.1830 3.2244 0.5575 0
M  V30 23 Pb 1.1493 3.9465 -0.7105 0
M  V30 24 Pb 2.1865 3.1389 -1.1901 0
M  V30 25 Pb 2.2134 2.4235 0.0093 0
M  V30 26 Pd 4.1367 -3.2667 -2.5201 0
M  V30 27 Pb 3.1801 -3.5079 -2.3825 0
M  V30 28 Pb 3.8549 -2.4587 -3.0467 0
M  V30 29 Pb 5.0922 -3.0004 -2.6832 0
M  V30 30 Pb 4.3679 -4.0838 -1.9792 0
M  V30 31 Pd -6.5878 3.1527 1.1820 0
M  V30 32 Pb -6.7563 2.9529 0.2147 0
M  V30 33 Pb -6.2989 3.2952 2.1253 0
M  V30 34 Pb -6.2662 4.0585 0.9207 0
M  V30 35 Pb -6.8413 2.2314 1.4665 0
M  V30 36 Pd -0.7698 0.5354 4.5833 0
M  V30 37 Pb -1.6026 1.0325 4.8238 0
M  V30 38 Pb 0.0666 0.0601 4.3390 0
M  V30 39 Pb -1.0932 -0.2896 5.0510 0
M  V30 40 Pb -0.4701 1.3501 4.0483 0
M  V30 41 Pd -3.2967 4.0923 -2.6080 0
M  V30 42 Pb -2.8873 3.5108 -3.3172 0
M  V30 43 Pb -3.7123 4.7128 -1.9448 0
M  V30 44 Pb -4.1786 3.6195 -2.6815 0
M  V30 45 Pb -2.4333 4.5818 -2.4859 0
M  V30 46 Ag -4.7447 -2.5188 2.7761 0
M  V30 47 Fe -5.9229 -0.5162 2.2971 0
M  V30 48 Ag -6.9533 1.5498 1.7516 0
M  V30 49 Ag -6.0061 3.2995 2.8123 0
M  V30 50 Fe -4.1545 2.4312 4.0146 0
M  V30 51 Ag -2.2168 1.4397 4.9584 0
M  V30 52 Ag 2.2842 -2.4414 2.3089 0
M  V30 53 Fe 3.4142 -0.5655 1.3686 0
M  V30 54 Ag 4.7796 1.0024 0.2032 0
M  V30 55 Ag 4.2155 -3.6152 2.2948 0
M  V30 56 Fe 5.6970 -1.9861 1.4440 0
M  V30 57 Ag 6.7021 -0.2190 0.2447 0
M  V30 58 Ag -3.7544 -3.2718 0.8502 0
M  V30 59 Fe -3.0675 -2.3779 -1.2361 0
M  V30 60 Ag -2.1295 -1.4313 -3.1975 0
M  V30 61 Ag 2.5337 1.8451 0.3411 0
M  V30 62 Fe 1.9725 0.5218 2.2066 0
M  V30 63 Ag 0.6990 -0.1939 4.0533 0
M  V30 64 Ba -6.8080 2.8056 -0.5214 0
M  V30 65 Ga -5.8577 3.0343 -1.6322 0
M  V30 66 Ba -4.8584 3.2946 -2.6919 0
M  V30 67 Ba 1.0973 -0.5028 -4.1159 0
M  V30 68 Ga 2.3701 -1.1781 -3.7766 0
M  V30 69 Ba 3.6457 -1.8496 -3.4403 0
M  V30 70 Ba -1.1661 0.5981 -4.4978 0
M  V30 71 Ga -1.8774 1.8453 -4.1410 0
M  V30 72 Ba -2.5843 3.1199 -3.8867 0
M  V30 73 Ba 5.1811 1.7248 -2.1838 0
M  V30 74 Ga 3.8941 2.4264 -2.0503 0
M  V30 75 Ba 2.6048 3.0938 -1.8087 0
M  V30 76 Ba -2.7391 -3.2430 4.1756 0
M  V30 77 Ga -2.0373 -2.1046 4.8035 0
M  V30 78 Ba -1.3353 -0.9304 5.3614 0
M  V30 79 Ba -0.0687 -2.3499 -2.9647 0
M  V30 80 Ga 1.1957 -3.0193 -2.6238 0
M  V30 81 Ba 2.4622 -3.6856 -2.2847 0
M  V30 82 Ba 3.3453 -5.4044 1.0957 0
M  V30 83 Ga 3.9208 -5.1193 -0.2405 0
M  V30 84 Ba 4.4476 -4.7137 -1.5660 0
M  V30 85 Ba 0.7908 4.5194 -1.0366 0
M  V30 86 Ga -0.5138 4.7318 -1.6922 0
M  V30 87 Ba -1.8094 4.9769 -2.3541 0
M  V30 88 Ba -5.9786 4.7094 0.6974 0
M  V30 89 Ga -5.0100 4.9916 -0.3728 0
M  V30 90 Ba -4.0395 5.1822 -1.4616 0
M  V30 91 Ba -1.9374 -4.4373 2.0215 0
M  V30 92 Ga -0.4669 -4.5244 1.8982 0
M  V30 93 Ba 0.9795 -4.7593 1.7036 0
M  V30 94 Ba 0.8439 3.3064 1.2423 0
M  V30 95 Ga 0.2947 2.5600 2.4182 0
M  V30 96 Ba -0.2968 1.9990 3.6738 0
M  V30 97 Ba 6.9739 -0.1313 -2.1212 0
M  V30 98 Ga 6.4434 -1.4500 -2.5287 0
M  V30 99 Ba 5.7797 -2.7331 -2.8468 0
M  V30 END ATOM
M  V30 BEGIN BOND
M  V30 1 1 1 2
M  V30 2 1 1 3
M  V30 3 1 1 4
M  V30 4 1 1 5
M  V30 5 1 6 7
M  V30 6 1 6 8
M  V30 7 1 6 9
M  V30 8 1 6 10
M  V30 9 1 11 12
M  V30 10 1 11 13
M  V30 11 1 11 14
M  V30 12 1 11 15
M  V30 13 1 16 17
M  V30 14 1 16 18
M  V30 15 1 16 19
M  V30 16 1 16 20
M  V30 17 1 21 22
M  V30 18 1 21 23
M  V30 19 1 21 24
M  V30 20 1 21 25
M  V30 21 1 26 27
M  V30 22 1 26 28
M  V30 23 1 26 29
M  V30 24 1 26 30
M  V30 25 1 31 32
M  V30 26 1 31 33
M  V30 27 1 31 34
M  V30 28 1 31 35
M  V30 29 1 36 37
M  V30 30 1 36 38
M  V30 31 1 36 39
M  V30 32 1 36 40
M  V30 33 1 41 42
M  V30 34 1 41 43
M  V30 35 1 41 44
M  V30 36 1 41 45
M  V30 37 1 46 47
M  V30 38 1 47 48
M  V30 39 1 49 50
M  V30 40 1 50 51
M  V30 41 1 52 53
M  V30 42 1 53 54
M  V30 43 1 55 56
M  V30 44 1 56 57
M  V30 45 1 58 59
M  V30 46 1 59 60
M  V30 47 1 61 62
M  V30 48 1 62 63
M  V30 49 1 64 65
M  V30 50 1 65 66
M  V30 51 1 67 68
M  V30 52 1 68 69
M  V30 53 1 70 71
M  V30 54 1 71 72
M  V30 55 1 73 74
M  V30 56 1 74 75
M  V30 57 1 76 77
M  V30 58 1 77 78
M  V30 59 1 79 80
M  V30 60 1 80 81
M  V30 61 1 82 83
M  V30 62 1 83 84
M  V30 63 1 85 86
M  V30 64 1 86 87
M  V30 65 1 88 89
M  V30 66 1 89 90
M  V30 67 1 91 92
M  V30 68 1 92 93
M  V30 69 1 94 95
M  V30 70 1 95 96
M  V30 71 1 97 98
M  V30 72 1 98 99
M  V30 73 1 2 58
M  V30 74 1 3 46
M  V30 75 1 4 91
M  V30 76 1 5 76
M  V30 77 1 7 55
M  V30 78 1 8 52
M  V30 79 1 9 93
M  V30 80 1 10 82
M  V30 81 1 12 73
M  V30 82 1 13 54
M  V30 83 1 14 97
M  V30 84 1 15 57
M  V30 85 1 17 67
M  V30 86 1 18 70
M  V30 87 1 19 79
M  V30 88 1 20 60
M  V30 89 1 22 94
M  V30 90 1 23 85
M  V30 91 1 24 75
M  V30 92 1 25 61
M  V30 93 1 27 81
M  V30 94 1 28 69
M  V30 95 1 29 99
M  V30 96 1 30 84
M  V30 97 1 32 64
M  V30 98 1 33 49
M  V30 99 1 34 88
M  V30 100 1 35 48
M  V30 101 1 37 51
M  V30 102 1 38 63
M  V30 103 1 39 78
M  V30 104 1 40 96
M  V30 105 1 42 72
M  V30 106 1 43 90
M  V30 107 1 44 66
M  V30 108 1 45 87
M  V30 END BOND
M  V30 END CTAB
M  END

$$$$
