
     RDKit          3D

  0  0  0  0  0  0  0  0  0  0999 V3000
M  V30 BEGIN CTAB
M  V30 COUNTS 99 108 0 0 0
M  V30 BEGIN ATOM
M  V30 1 Pd -6.0981 -2.2646 1.8155 0
M  V30 2 Pb -6.0280 -1.7054 2.6425 0
M  V30 3 Pb -6.1352 -2.8729 1.0196 0
M  V30 4 Pb -6.7883 -2.8446 2.2495 0
M  V30 5 Pb -5.4044 -1.6848 1.3846 0
M  V30 6 Pd -5.5400 -6.9906 2.3127 0
M  V30 7 Pb -4.6147 -7.2578 2.0483 0
M  V30 8 Pb -6.4112 -6.6110 2.6145 0
M  V30 9 Pb -5.7424 -6.6600 1.3913 0
M  V30 10 Pb -5.2671 -7.1651 3.2576 0
M  V30 11 Pd -0.8171 3.6337 -2.9388 0
M  V30 12 Pb -0.6631 4.3515 -2.2612 0
M  V30 13 Pb -0.8914 2.8629 -3.5696 0
M  V30 14 Pb -0.3909 4.1890 -3.6545 0
M  V30 15 Pb -1.3162 3.1067 -2.2509 0
M  V30 16 Pd 4.1524 5.2473 -5.1313 0
M  V30 17 Pb 4.1762 4.4707 -5.7643 0
M  V30 18 Pb 4.1589 5.9197 -4.3946 0
M  V30 19 Pb 5.1293 5.1343 -4.9865 0
M  V30 20 Pb 3.1711 5.3707 -5.2751 0
M  V30 21 Pd -1.9471 0.1773 4.0325 0
M  V30 22 Pb -1.0085 0.2944 3.7108 0
M  V30 23 Pb -1.6003 -0.1386 4.9175 0
M  V30 24 Pb -2.2751 0.4648 3.1336 0
M  V30 25 Pb -2.8952 0.0696 4.3350 0
M  V30 26 Pd 0.1676 -4.3177 5.1180 0
M  V30 27 Pb 0.1510 -5.0308 4.4184 0
M  V30 28 Pb 0.7978 -3.7756 4.5645 0
M  V30 29 Pb -0.5247 -4.8525 5.6020 0
M  V30 30 Pb 0.0842 -3.5643 5.7696 0
M  V30 31 Pd 3.4271 4.2247 -0.0238 0
M  V30 32 Pb 3.0738 3.4707 0.5305 0
M  V30 33 Pb 4.2956 3.7201 -0.0489 0
M  V30 34 Pb 2.5461 4.7012 -0.0024 0
M  V30 35 Pb 3.7738 5.0012 -0.5556 0
M  V30 36 Pd 0.8122 -0.8826 -1.7025 0
M  V30 37 Pb 1.6637 -1.1891 -2.1281 0
M  V30 38 Pb 0.4289 -0.6365 -2.5936 0
M  V30 39 Pb -0.0455 -0.5881 -1.2782 0
M  V30 40 Pb 1.2006 -1.1050 -0.8075 0
M  V30 41 Pd 5.8393 1.0730 -3.5234 0
M  V30 42 Pb 6.4303 1.8571 -3.6850 0
M  V30 43 Pb 5.5456 1.1246 -4.4801 0
M  V30 44 Pb 6.0549 1.1603 -2.5515 0
M  V30 45 Pb 5.2911 0.2466 -3.3846 0
M  V30 46 Ag -4.9632 -7.1918 3.9413 0
M  V30 47 Fe -3.0745 -6.3275 5.0903 0
M  V30 48 Ag -1.0861 -5.2800 5.8548 0
M  V30 49 Ag -4.8864 -1.2272 1.0895 0
M  V30 50 Fe -2.7861 -0.8254 0.0526 0
M  V30 51 Ag -0.6987 -0.3612 -0.9845 0
M  V30 52 Ag -3.8822 -7.3737 1.9474 0
M  V30 53 Fe -1.8076 -6.5918 2.7934 0
M  V30 54 Ag 0.0176 -5.5497 3.8952 0
M  V30 55 Ag 1.2274 -3.3649 4.1089 0
M  V30 56 Fe 1.3998 -2.3048 1.9909 0
M  V30 57 Ag 1.5084 -1.2672 -0.1424 0
M  V30 58 Ag -0.3111 0.3870 3.4539 0
M  V30 59 Fe 1.2539 1.6580 2.1992 0
M  V30 60 Ag 2.8575 2.8920 0.9563 0
M  V30 61 Ag -1.7334 2.7299 -1.7542 0
M  V30 62 Fe -2.0942 1.7041 0.3568 0
M  V30 63 Ag -2.5094 0.6633 2.4503 0
M  V30 64 Ba -0.1241 4.6167 -4.2114 0
M  V30 65 Ga 1.1756 5.0264 -4.7767 0
M  V30 66 Ba 2.4385 5.4762 -5.3927 0
M  V30 67 Ba 2.3022 -1.4436 -2.4282 0
M  V30 68 Ga 3.5962 -0.8834 -2.8645 0
M  V30 69 Ba 4.9139 -0.4002 -3.3212 0
M  V30 70 Ba -6.1685 -3.3843 0.4686 0
M  V30 71 Ga -6.0355 -4.8544 0.5280 0
M  V30 72 Ba -5.8795 -6.3072 0.7439 0
M  V30 73 Ba 4.9077 3.2785 -0.0216 0
M  V30 74 Ga 5.5663 2.3035 -0.9185 0
M  V30 75 Ba 6.2065 1.3377 -1.8383 0
M  V30 76 Ba 5.8480 5.0028 -4.8492 0
M  V30 77 Ga 6.4396 3.7645 -4.3383 0
M  V30 78 Ba 6.8507 2.4551 -3.8274 0
M  V30 79 Ba -7.2875 -3.3171 2.5505 0
M  V30 80 Ga -7.2304 -4.7785 2.7244 0
M  V30 81 Ba -7.0186 -6.2321 2.8278 0
M  V30 82 Ba -1.3126 -0.3953 5.5629 0
M  V30 83 Ga -0.6635 -1.6691 5.9302 0
M  V30 84 Ba -0.0276 -2.9707 6.2138 0
M  V30 85 Ba -0.5066 4.8429 -1.7177 0
M  V30 86 Ga 0.6810 4.9853 -0.8532 0
M  V30 87 Ba 1.8952 5.0771 -0.0191 0
M  V30 88 Ba -5.9454 -1.3039 3.2715 0
M  V30 89 Ga -4.7904 -0.6469 3.9148 0
M  V30 90 Ba -3.6163 0.0002 4.5334 0
M  V30 91 Ba 4.2382 3.8363 -6.1647 0
M  V30 92 Ga 4.7557 2.5167 -5.7404 0
M  V30 93 Ba 5.2968 1.2600 -5.1774 0
M  V30 94 Ba 4.2178 6.3513 -3.7864 0
M  V30 95 Ga 4.0944 6.0076 -2.3559 0
M  V30 96 Ba 3.9652 5.6225 -0.9364 0
M  V30 97 Ba -0.8984 2.2450 -3.9924 0
M  V30 98 Ga -0.4048 0.8927 -3.6728 0
M  V30 99 Ba 0.1213 -0.4158 -3.2419 0
M  V30 END ATOM
M  V30 BEGIN BOND
M  V30 1 1 1 2
M  V30 2 1 1 3
M  V30 3 1 1 4
M  V30 4 1 1 5
M  V30 5 1 6 7
M  V30 6 1 6 8
M  V30 7 1 6 9
M  V30 8 1 6 10
M  V30 9 1 11 12
M  V30 10 1 11 13
M  V30 11 1 11 14
M  V30 12 1 11 15
M  V30 13 1 16 17
M  V30 14 1 16 18
M  V30 15 1 16 19
M  V30 16 1 16 20
M  V30 17 1 21 22
M  V30 18 1 21 23
M  V30 19 1 21 24
M  V30 20 1 21 25
M  V30 21 1 26 27
M  V30 22 1 26 28
M  V30 23 1 26 29
M  V30 24 1 26 30
M  V30 25 1 31 32
M  V30 26 1 31 33
M  V30 27 1 31 34
M  V30 28 1 31 35
M  V30 29 1 36 37
M  V30 30 1 36 38
M  V30 31 1 36 39
M  V30 32 1 36 40
M  V30 33 1 41 42
M  V30 34 1 41 43
M  V30 35 1 41 44
M  V30 36 1 41 45
M  V30 37 1 46 47
M  V30 38 1 47 48
M  V30 39 1 49 50
M  V30 40 1 50 51
M  V30 41 1 52 53
M  V30 42 1 53 54
M  V30 43 1 55 56
M  V30 44 1 56 57
M  V30 45 1 58 59
M  V30 46 1 59 60
M  V30 47 1 61 62
M  V30 48 1 62 63
M  V30 49 1 64 65
M  V30 50 1 65 66
M  V30 51 1 67 68
M  V30 52 1 68 69
M  V30 53 1 70 71
M  V30 54 1 71 72
M  V30 55 1 73 74
M  V30 56 1 74 75
M  V30 57 1 76 77
M  V30 58 1 77 78
M  V30 59 1 79 80
M  V30 60 1 80 81
M  V30 61 1 82 83
M  V30 62 1 83 84
M  V30 63 1 85 86
M  V30 64 1 86 87
M  V30 65 1 88 89
M  V30 66 1 89 90
M  V30 67 1 91 92
M  V30 68 1 92 93
M  V30 69 1 94 95
M  V30 70 1 95 96
M  V30 71 1 97 98
M  V30 72 1 98 99
M  V30 73 1 2 88
M  V30 74 1 3 70
M  V30 75 1 4 79
M  V30 76 1 5 49
M  V30 77 1 7 52
M  V30 78 1 8 81
M  V30 79 1 9 72
M  V30 80 1 10 46
M  V30 81 1 12 85
M  V30 82 1 13 97
M  V30 83 1 14 64
M  V30 84 1 15 61
M  V30 85 1 17 91
M  V30 86 1 18 94
M  V30 87 1 19 76
M  V30 88 1 20 66
M  V30 89 1 22 58
M  V30 90 1 23 82
M  V30 91 1 24 63
M  V30 92 1 25 90
M  V30 93 1 27 54
M  V30 94 1 28 55
M  V30 95 1 29 48
M  V30 96 1 30 84
M  V30 97 1 32 60
M  V30 98 1 33 73
M  V30 99 1 34 87
M  V30 100 1 35 96
M  V30 101 1 37 67
M  V30 102 1 38 99
M  V30 103 1 39 51
M  V30 104 1 40 57
M  V30 105 1 42 78
M  V30 106 1 43 93
M  V30 107 1 44 75
M  V30 108 1 45 69
M  V30 END BOND
M  V30 END CTAB
M  END

$$$$
