
     RDKit          3D

  0  0  0  0  0  0  0  0  0  0999 V3000
M  V30 BEGIN CTAB
M  V30 COUNTS 99 108 0 0 0
M  V30 BEGIN ATOM
M  V30 1 Pd -1.4647 4.2869 -2.5087 0
M  V30 2 Pb -0.6428 4.5288 -3.0255 0
M  V30 3 Pb -1.1465 4.8678 -1.7556 0
M  V30 4 Pb -1.7890 3.7478 -3.2843 0
M  V30 5 Pb -2.2812 3.9999 -2.0063 0
M  V30 6 Pd -0.7571 2.6956 6.9439 0
M  V30 7 Pb -0.2706 1.9217 6.5378 0
M  V30 8 Pb -1.2069 3.4772 7.3717 0
M  V30 9 Pb -1.5854 2.1438 7.0702 0
M  V30 10 Pb 0.0408 3.2830 6.7781 0
M  V30 11 Pd 4.8945 -3.7765 -0.1376 0
M  V30 12 Pb 4.7377 -2.7936 -0.0060 0
M  V30 13 Pb 4.7169 -4.0015 0.8204 0
M  V30 14 Pb 4.9802 -4.7484 -0.3438 0
M  V30 15 Pb 5.0064 -3.5782 -1.1070 0
M  V30 16 Pd 0.4032 -7.6151 -3.7614 0
M  V30 17 Pb 1.2857 -7.9289 -3.4200 0
M  V30 18 Pb 0.8062 -7.3333 -4.6332 0
M  V30 19 Pb 0.0334 -7.7664 -2.8445 0
M  V30 20 Pb -0.4459 -7.1959 -4.0781 0
M  V30 21 Pd 0.3963 -4.1202 2.9694 0
M  V30 22 Pb 0.6268 -3.2986 3.4911 0
M  V30 23 Pb 1.3624 -4.3784 3.0286 0
M  V30 24 Pb 0.1632 -4.9426 2.4450 0
M  V30 25 Pb -0.5635 -3.8427 2.9325 0
M  V30 26 Pd -0.4261 -1.5296 -7.4025 0
M  V30 27 Pb 0.1815 -2.3053 -7.5789 0
M  V30 28 Pb 0.2445 -0.8565 -7.7202 0
M  V30 29 Pb -1.0357 -0.7767 -7.1650 0
M  V30 30 Pb -1.0789 -2.1973 -7.0452 0
M  V30 31 Pd 2.8770 1.5801 -4.7070 0
M  V30 32 Pb 2.5014 2.5059 -4.6200 0
M  V30 33 Pb 2.6593 1.5604 -5.6844 0
M  V30 34 Pb 3.2953 0.6804 -4.7917 0
M  V30 35 Pb 3.0925 1.5295 -3.7268 0
M  V30 36 Pd -4.9361 1.4312 3.7609 0
M  V30 37 Pb -4.7343 0.4736 3.5574 0
M  V30 38 Pb -5.1243 2.3970 3.9283 0
M  V30 39 Pb -4.7343 1.2601 4.7282 0
M  V30 40 Pb -5.0649 1.6344 2.7916 0
M  V30 41 Pd -0.9844 7.0610 4.8398 0
M  V30 42 Pb -1.2921 6.9390 5.7801 0
M  V30 43 Pb -0.7018 7.1151 3.8811 0
M  V30 44 Pb -1.9404 7.1689 4.5886 0
M  V30 45 Pb -0.0742 6.7608 5.1214 0
M  V30 46 Ag 0.1366 1.3617 6.2487 0
M  V30 47 Fe 0.4168 -0.6717 5.0535 0
M  V30 48 Ag 0.8387 -2.6943 3.8818 0
M  V30 49 Ag -1.2833 -3.6338 2.9099 0
M  V30 50 Fe -2.9364 -1.9464 3.1528 0
M  V30 51 Ag -4.5699 -0.2410 3.4020 0
M  V30 52 Ag -0.1816 -7.8156 -2.1272 0
M  V30 53 Fe -0.1414 -6.7227 -0.0166 0
M  V30 54 Ag -0.0442 -5.5476 2.0475 0
M  V30 55 Ag 1.0708 -7.0170 -5.2610 0
M  V30 56 Fe 0.9297 -5.0312 -6.5590 0
M  V30 57 Ag 0.5757 -2.9423 -7.6356 0
M  V30 58 Ag 5.0289 -3.3970 -1.8299 0
M  V30 59 Fe 4.3845 -1.7578 -3.4146 0
M  V30 60 Ag 3.6370 0.0177 -4.7937 0
M  V30 61 Ag 4.5925 -2.0531 -0.0148 0
M  V30 62 Fe 3.9362 -0.2489 -1.4237 0
M  V30 63 Ag 3.2722 1.4044 -3.0038 0
M  V30 64 Ag -1.0124 -6.7930 -4.3553 0
M  V30 65 Fe -1.4261 -4.7873 -5.5551 0
M  V30 66 Ag -1.5059 -2.7408 -6.7552 0
M  V30 67 Ag 4.9617 -5.4597 -0.5700 0
M  V30 68 Fe 3.5899 -6.9372 -1.8157 0
M  V30 69 Ag 1.9472 -8.0625 -3.1012 0
M  V30 70 Ag -2.0404 3.3573 -3.8715 0
M  V30 71 Fe -1.7837 1.5835 -5.4264 0
M  V30 72 Ag -1.4698 -0.2070 -6.9514 0
M  V30 73 Ag -2.8993 3.7337 -1.6733 0
M  V30 74 Fe -4.0270 2.7902 0.1919 0
M  V30 75 Ag -5.1246 1.8512 2.0772 0
M  V30 76 Ag -5.2233 3.1368 3.9771 0
M  V30 77 Fe -4.1232 5.2242 4.1999 0
M  V30 78 Ag -2.6681 7.0752 4.4652 0
M  V30 79 Ag -0.8797 5.3377 -1.2313 0
M  V30 80 Fe -0.7118 6.2118 0.9731 0
M  V30 81 Ag -0.5025 7.1271 3.1571 0
M  V30 82 Ba -0.0256 4.7003 -3.4169 0
M  V30 83 Ga 1.1047 3.9383 -3.9863 0
M  V30 84 Ba 2.2519 3.2145 -4.5713 0
M  V30 85 Ba 0.6106 3.7573 6.6372 0
M  V30 86 Ga 0.6484 5.0971 6.0123 0
M  V30 87 Ba 0.5483 6.4262 5.3720 0
M  V30 88 Ba -1.4980 4.0970 7.6726 0
M  V30 89 Ga -1.5551 5.4641 7.1342 0
M  V30 90 Ba -1.5411 6.7728 6.4641 0
M  V30 91 Ba -2.2253 1.7564 7.1603 0
M  V30 92 Ga -3.3879 1.4370 6.3029 0
M  V30 93 Ba -4.5499 1.1182 5.4443 0
M  V30 94 Ba 0.7262 -0.3184 -7.9299 0
M  V30 95 Ga 1.6205 0.5958 -7.1894 0
M  V30 96 Ba 2.5038 1.4940 -6.4169 0
M  V30 97 Ba 4.5617 -4.2240 1.5198 0
M  V30 98 Ga 3.3238 -4.3706 2.3114 0
M  V30 99 Ba 2.0949 -4.5242 3.1155 0
M  V30 END ATOM
M  V30 BEGIN BOND
M  V30 1 1 1 2
M  V30 2 1 1 3
M  V30 3 1 1 4
M  V30 4 1 1 5
M  V30 5 1 6 7
M  V30 6 1 6 8
M  V30 7 1 6 9
M  V30 8 1 6 10
M  V30 9 1 11 12
M  V30 10 1 11 13
M  V30 11 1 11 14
M  V30 12 1 11 15
M  V30 13 1 16 17
M  V30 14 1 16 18
M  V30 15 1 16 19
M  V30 16 1 16 20
M  V30 17 1 21 22
M  V30 18 1 21 23
M  V30 19 1 21 24
M  V30 20 1 21 25
M  V30 21 1 26 27
M  V30 22 1 26 28
M  V30 23 1 26 29
M  V30 24 1 26 30
M  V30 25 1 31 32
M  V30 26 1 31 33
M  V30 27 1 31 34
M  V30 28 1 31 35
M  V30 29 1 36 37
M  V30 30 1 36 38
M  V30 31 1 36 39
M  V30 32 1 36 40
M  V30 33 1 41 42
M  V30 34 1 41 43
M  V30 35 1 41 44
M  V30 36 1 41 45
M  V30 37 1 46 47
M  V30 38 1 47 48
M  V30 39 1 49 50
M  V30 40 1 50 51
M  V30 41 1 52 53
M  V30 42 1 53 54
M  V30 43 1 55 56
M  V30 44 1 56 57
M  V30 45 1 58 59
M  V30 46 1 59 60
M  V30 47 1 61 62
M  V30 48 1 62 63
M  V30 49 1 64 65
M  V30 50 1 65 66
M  V30 51 1 67 68
M  V30 52 1 68 69
M  V30 53 1 70 71
M  V30 54 1 71 72
M  V30 55 1 73 74
M  V30 56 1 74 75
M  V30 57 1 76 77
M  V30 58 1 77 78
M  V30 59 1 79 80
M  V30 60 1 80 81
M  V30 61 1 82 83
M  V30 62 1 83 84
M  V30 63 1 85 86
M  V30 64 1 86 87
M  V30 65 1 88 89
M  V30 66 1 89 90
M  V30 67 1 91 92
M  V30 68 1 92 93
M  V30 69 1 94 95
M  V30 70 1 95 96
M  V30 71 1 97 98
M  V30 72 1 98 99
M  V30 73 1 2 82
M  V30 74 1 3 79
M  V30 75 1 4 70
M  V30 76 1 5 73
M  V30 77 1 7 46
M  V30 78 1 8 88
M  V30 79 1 9 91
M  V30 80 1 10 85
M  V30 81 1 12 61
M  V30 82 1 13 97
M  V30 83 1 14 67
M  V30 84 1 15 58
M  V30 85 1 17 69
M  V30 86 1 18 55
M  V30 87 1 19 52
M  V30 88 1 20 64
M  V30 89 1 22 48
M  V30 90 1 23 99
M  V30 91 1 24 54
M  V30 92 1 25 49
M  V30 93 1 27 57
M  V30 94 1 28 94
M  V30 95 1 29 72
M  V30 96 1 30 66
M  V30 97 1 32 84
M  V30 98 1 33 96
M  V30 99 1 34 60
M  V30 100 1 35 63
M  V30 101 1 37 51
M  V30 102 1 38 76
M  V30 103 1 39 93
M  V30 104 1 40 75
M  V30 105 1 42 90
M  V30 106 1 43 81
M  V30 107 1 44 78
M  V30 108 1 45 87
M  V30 END BOND
M  V30 END CTAB
M  END

$$$$
