
     RDKit          3D

  0  0  0  0  0  0  0  0  0  0999 V3000
M  V30 BEGIN CTAB
M  V30 COUNTS 99 108 0 0 0
M  V30 BEGIN ATOM
M  V30 1 Pd -2.1043 2.1401 0.1740 0
M  V30 2 Pb -2.8356 1.9473 0.8251 0
M  V30 3 Pb -2.3344 1.2592 -0.2449 0
M  V30 4 Pb -1.8952 2.9894 0.6616 0
M  V30 5 Pb -1.2801 2.2704 -0.3871 0
M  V30 6 Pd -3.7528 -0.6958 -7.0650 0
M  V30 7 Pb -2.9454 -1.2786 -6.9931 0
M  V30 8 Pb -4.3093 -1.4305 -6.6732 0
M  V30 9 Pb -3.1826 0.0518 -7.4182 0
M  V30 10 Pb -4.5774 -0.1266 -7.0827 0
M  V30 11 Pd 2.2129 -4.1953 3.6128 0
M  V30 12 Pb 2.0928 -3.9726 4.5832 0
M  V30 13 Pb 2.3105 -4.4199 2.6411 0
M  V30 14 Pb 3.2095 -4.1114 3.6932 0
M  V30 15 Pb 1.2216 -4.3101 3.5408 0
M  V30 16 Pd 6.1505 -0.3432 3.1747 0
M  V30 17 Pb 6.1375 -1.3278 3.3549 0
M  V30 18 Pb 5.9640 -0.1398 4.1353 0
M  V30 19 Pb 6.3077 -0.5006 2.2006 0
M  V30 20 Pb 6.1023 0.6421 3.0129 0
M  V30 21 Pd 3.1298 -1.9535 -3.7614 0
M  V30 22 Pb 2.3763 -2.2723 -4.3345 0
M  V30 23 Pb 2.9952 -2.7119 -3.1217 0
M  V30 24 Pb 3.9135 -1.6624 -3.2138 0
M  V30 25 Pb 3.2461 -1.1803 -4.3873 0
M  V30 26 Pd 1.8392 4.4767 5.9467 0
M  V30 27 Pb 2.4879 3.9070 6.4484 0
M  V30 28 Pb 1.1120 4.1602 6.5525 0
M  V30 29 Pb 1.1816 4.9252 5.3425 0
M  V30 30 Pb 2.5731 4.6595 5.2950 0
M  V30 31 Pd -1.7426 -1.8062 6.0783 0
M  V30 32 Pb -2.5114 -1.3630 5.6190 0
M  V30 33 Pb -1.6774 -1.0091 6.6778 0
M  V30 34 Pb -1.7785 -2.5654 5.4300 0
M  V30 35 Pb -0.9173 -2.2105 6.4766 0
M  V30 36 Pd 0.1655 2.4703 -4.9857 0
M  V30 37 Pb 1.0162 2.0522 -5.3124 0
M  V30 38 Pb -0.6602 2.8999 -4.6325 0
M  V30 39 Pb -0.2519 2.3815 -5.8943 0
M  V30 40 Pb 0.5246 2.5201 -4.0552 0
M  V30 41 Pd -6.0192 0.0197 -3.1022 0
M  V30 42 Pb -6.1655 -0.9024 -3.4516 0
M  V30 43 Pb -5.3600 -0.3286 -2.4338 0
M  V30 44 Pb -5.7627 0.9507 -2.8708 0
M  V30 45 Pb -6.5165 0.3749 -3.8914 0
M  V30 46 Ag -2.3504 -1.7235 -6.9020 0
M  V30 47 Fe -0.2582 -2.1238 -5.8550 0
M  V30 48 Ag 1.8316 -2.5011 -4.7949 0
M  V30 49 Ag -3.3074 1.7181 1.3582 0
M  V30 50 Fe -3.3406 0.3923 3.3258 0
M  V30 51 Ag -3.0296 -0.9824 5.2347 0
M  V30 52 Ag 6.4049 -0.5818 1.4621 0
M  V30 53 Fe 5.4707 -1.0313 -0.6739 0
M  V30 54 Ag 4.5111 -1.4840 -2.7979 0
M  V30 55 Ag 5.7880 0.1050 4.8214 0
M  V30 56 Fe 4.4439 1.7082 5.9425 0
M  V30 57 Ag 2.9792 3.4088 6.7143 0
M  V30 58 Ag 6.0011 1.3826 2.9570 0
M  V30 59 Fe 4.6596 3.1593 3.7799 0
M  V30 60 Ag 3.1404 4.6656 4.8072 0
M  V30 61 Ag -1.7391 3.5995 1.0713 0
M  V30 62 Fe -0.5601 4.4896 2.9318 0
M  V30 63 Ag 0.7018 5.1756 4.8239 0
M  V30 64 Ag -1.2727 3.1793 -4.3129 0
M  V30 65 Fe -3.4170 2.6186 -3.4840 0
M  V30 66 Ag -5.4572 1.6246 -2.8163 0
M  V30 67 Ag 0.5977 3.8143 6.9713 0
M  V30 68 Fe -0.5846 1.7634 7.1400 0
M  V30 69 Ag -1.6226 -0.3698 7.0650 0
M  V30 70 Ag 2.3714 -4.5929 1.9118 0
M  V30 71 Fe 2.6378 -3.9354 -0.3568 0
M  V30 72 Ag 2.9051 -3.2654 -2.6217 0
M  V30 73 Ba 3.3105 -0.6055 -4.8672 0
M  V30 74 Ga 2.4837 0.5728 -5.2025 0
M  V30 75 Ba 1.6663 1.7547 -5.5474 0
M  V30 76 Ba 0.4777 -4.4050 3.5101 0
M  V30 77 Ga -0.6616 -3.7771 4.2048 0
M  V30 78 Ba -1.7671 -3.1183 4.9248 0
M  V30 79 Ba -5.2233 0.2550 -7.0291 0
M  V30 80 Ga -6.0652 0.4923 -5.8404 0
M  V30 81 Ba -6.7664 0.6296 -4.5494 0
M  V30 82 Ba -4.7381 -1.9464 -6.3351 0
M  V30 83 Ga -5.5036 -1.8474 -5.0800 0
M  V30 84 Ba -6.1974 -1.5547 -3.8139 0
M  V30 85 Ba 1.9694 -3.8114 5.3084 0
M  V30 86 Ga 0.8583 -3.1637 6.0379 0
M  V30 87 Ba -0.2747 -2.5098 6.7270 0
M  V30 88 Ba 3.9602 -4.0800 3.7484 0
M  V30 89 Ga 5.0229 -3.0608 3.6207 0
M  V30 90 Ba 6.1076 -2.0641 3.4996 0
M  V30 91 Ba -2.7398 0.6050 -7.6771 0
M  V30 92 Ga -1.6641 1.4540 -7.1158 0
M  V30 93 Ba -0.5873 2.3087 -6.5656 0
M  V30 94 Ba -0.6082 2.3706 -0.7186 0
M  V30 95 Ga 0.0366 2.4582 -2.0461 0
M  V30 96 Ba 0.7454 2.5560 -3.3403 0
M  V30 97 Ba -2.5599 0.5753 -0.4647 0
M  V30 98 Ga -3.6827 0.0079 -1.2420 0
M  V30 99 Ba -4.7936 -0.5897 -2.0135 0
M  V30 END ATOM
M  V30 BEGIN BOND
M  V30 1 1 1 2
M  V30 2 1 1 3
M  V30 3 1 1 4
M  V30 4 1 1 5
M  V30 5 1 6 7
M  V30 6 1 6 8
M  V30 7 1 6 9
M  V30 8 1 6 10
M  V30 9 1 11 12
M  V30 10 1 11 13
M  V30 11 1 11 14
M  V30 12 1 11 15
M  V30 13 1 16 17
M  V30 14 1 16 18
M  V30 15 1 16 19
M  V30 16 1 16 20
M  V30 17 1 21 22
M  V30 18 1 21 23
M  V30 19 1 21 24
M  V30 20 1 21 25
M  V30 21 1 26 27
M  V30 22 1 26 28
M  V30 23 1 26 29
M  V30 24 1 26 30
M  V30 25 1 31 32
M  V30 26 1 31 33
M  V30 27 1 31 34
M  V30 28 1 31 35
M  V30 29 1 36 37
M  V30 30 1 36 38
M  V30 31 1 36 39
M  V30 32 1 36 40
M  V30 33 1 41 42
M  V30 34 1 41 43
M  V30 35 1 41 44
M  V30 36 1 41 45
M  V30 37 1 46 47
M  V30 38 1 47 48
M  V30 39 1 49 50
M  V30 40 1 50 51
M  V30 41 1 52 53
M  V30 42 1 53 54
M  V30 43 1 55 56
M  V30 44 1 56 57
M  V30 45 1 58 59
M  V30 46 1 59 60
M  V30 47 1 61 62
M  V30 48 1 62 63
M  V30 49 1 64 65
M  V30 50 1 65 66
M  V30 51 1 67 68
M  V30 52 1 68 69
M  V30 53 1 70 71
M  V30 54 1 71 72
M  V30 55 1 73 74
M  V30 56 1 74 75
M  V30 57 1 76 77
M  V30 58 1 77 78
M  V30 59 1 79 80
M  V30 60 1 80 81
M  V30 61 1 82 83
M  V30 62 1 83 84
M  V30 63 1 85 86
M  V30 64 1 86 87
M  V30 65 1 88 89
M  V30 66 1 89 90
M  V30 67 1 91 92
M  V30 68 1 92 93
M  V30 69 1 94 95
M  V30 70 1 95 96
M  V30 71 1 97 98
M  V30 72 1 98 99
M  V30 73 1 2 49
M  V30 74 1 3 97
M  V30 75 1 4 61
M  V30 76 1 5 94
M  V30 77 1 7 46
M  V30 78 1 8 82
M  V30 79 1 9 91
M  V30 80 1 10 79
M  V30 81 1 12 85
M  V30 82 1 13 70
M  V30 83 1 14 88
M  V30 84 1 15 76
M  V30 85 1 17 90
M  V30 86 1 18 55
M  V30 87 1 19 52
M  V30 88 1 20 58
M  V30 89 1 22 48
M  V30 90 1 23 72
M  V30 91 1 24 54
M  V30 92 1 25 73
M  V30 93 1 27 57
M  V30 94 1 28 67
M  V30 95 1 29 63
M  V30 96 1 30 60
M  V30 97 1 32 51
M  V30 98 1 33 69
M  V30 99 1 34 78
M  V30 100 1 35 87
M  V30 101 1 37 75
M  V30 102 1 38 64
M  V30 103 1 39 93
M  V30 104 1 40 96
M  V30 105 1 42 84
M  V30 106 1 43 99
M  V30 107 1 44 66
M  V30 108 1 45 81
M  V30 END BOND
M  V30 END CTAB
M  END

$$$$
