
     RDKit          3D

  0  0  0  0  0  0  0  0  0  0999 V3000
M  V30 BEGIN CTAB
M  V30 COUNTS 99 108 0 0 0
M  V30 BEGIN ATOM
M  V30 1 Pd 3.0525 1.7595 0.7464 0
M  V30 2 Pb 2.8715 2.4513 0.0482 0
M  V30 3 Pb 3.4629 2.4719 1.3128 0
M  V30 4 Pb 2.6277 1.0875 0.1397 0
M  V30 5 Pb 3.2036 1.0613 1.4510 0
M  V30 6 Pd 3.1614 -3.5885 -1.6290 0
M  V30 7 Pb 2.8365 -3.7685 -0.6978 0
M  V30 8 Pb 3.4528 -4.5416 -1.6786 0
M  V30 9 Pb 2.7605 -2.6726 -1.6058 0
M  V30 10 Pb 3.4628 -3.4599 -2.5766 0
M  V30 11 Pd -0.2400 -6.6135 -0.9910 0
M  V30 12 Pb -1.1159 -6.1842 -0.7760 0
M  V30 13 Pb 0.6612 -6.9865 -1.2099 0
M  V30 14 Pb -0.5300 -6.7394 -1.9368 0
M  V30 15 Pb 0.1283 -6.3079 -0.1161 0
M  V30 16 Pd -0.5422 2.6034 -5.6920 0
M  V30 17 Pb -1.0338 1.9298 -6.2475 0
M  V30 18 Pb -1.3832 2.8936 -5.2347 0
M  V30 19 Pb 0.3052 2.3199 -6.1344 0
M  V30 20 Pb -0.0162 3.1926 -5.0815 0
M  V30 21 Pd -4.3367 -1.9289 3.6809 0
M  V30 22 Pb -4.4957 -1.4246 4.5207 0
M  V30 23 Pb -5.0946 -1.4313 3.2661 0
M  V30 24 Pb -4.2248 -2.4767 2.8521 0
M  V30 25 Pb -3.4490 -2.2600 4.0511 0
M  V30 26 Pd 1.0418 -2.1686 -6.5810 0
M  V30 27 Pb 1.5153 -1.3182 -6.7987 0
M  V30 28 Pb 0.1888 -1.7505 -6.9036 0
M  V30 29 Pb 0.5703 -3.0264 -6.3708 0
M  V30 30 Pb 1.9010 -2.5342 -6.2179 0
M  V30 31 Pd 0.7093 5.1511 3.8245 0
M  V30 32 Pb -0.2426 5.1039 4.1317 0
M  V30 33 Pb 1.0487 4.6812 4.6396 0
M  V30 34 Pb 0.3953 5.6152 2.9948 0
M  V30 35 Pb 1.6573 5.1580 3.5124 0
M  V30 36 Pd 0.8361 0.0519 5.6370 0
M  V30 37 Pb 1.3190 0.8865 5.8973 0
M  V30 38 Pb 0.2835 -0.7692 5.3862 0
M  V30 39 Pb 1.5571 -0.1933 4.9828 0
M  V30 40 Pb 0.1428 0.3057 6.3001 0
M  V30 41 Pd -3.7100 4.6218 1.0131 0
M  V30 42 Pb -3.8255 4.5180 0.0244 0
M  V30 43 Pb -2.9347 5.2384 0.8741 0
M  V30 44 Pb -3.5715 4.7052 2.0019 0
M  V30 45 Pb -4.4587 3.9734 1.1570 0
M  V30 46 Ag -1.9932 3.1309 -4.8680 0
M  V30 47 Fe -2.9766 3.7792 -2.8049 0
M  V30 48 Ag -3.9085 4.4174 -0.7150 0
M  V30 49 Ag -1.7559 -5.8298 -0.6161 0
M  V30 50 Fe -2.9645 -4.3695 0.8137 0
M  V30 51 Ag -4.1752 -2.9088 2.2413 0
M  V30 52 Ag -5.5557 -0.9356 2.9503 0
M  V30 53 Fe -5.4414 1.2637 2.0652 0
M  V30 54 Ag -4.9876 3.4513 1.2628 0
M  V30 55 Ag 2.7056 2.9501 -0.4859 0
M  V30 56 Fe 1.5811 3.3561 -2.5363 0
M  V30 57 Ag 0.3986 3.5661 -4.5834 0
M  V30 58 Ag -4.4903 -1.0437 5.1534 0
M  V30 59 Fe -2.7197 -0.0797 6.3625 0
M  V30 60 Ag -0.4554 0.4495 6.7084 0
M  V30 61 Ag -0.6847 -6.7019 -2.6671 0
M  V30 62 Fe -0.2968 -5.2690 -4.5199 0
M  V30 63 Ag 0.2294 -3.6729 -6.1973 0
M  V30 64 Ba -0.9672 5.0655 4.3272 0
M  V30 65 Ga -2.2155 4.9177 3.5507 0
M  V30 66 Ba -3.4415 4.7690 2.7398 0
M  V30 67 Ba -1.3555 1.3770 -6.6438 0
M  V30 68 Ga -0.9266 -0.0140 -6.9078 0
M  V30 69 Ba -0.4337 -1.3913 -7.1293 0
M  V30 70 Ba 3.7394 3.0538 1.6940 0
M  V30 71 Ga 3.0934 4.0952 2.5106 0
M  V30 72 Ba 2.3765 5.0995 3.3145 0
M  V30 73 Ba 3.3140 0.5229 1.9660 0
M  V30 74 Ga 2.6930 0.0930 3.2385 0
M  V30 75 Ba 2.1157 -0.3850 4.5143 0
M  V30 76 Ba 0.9344 2.0802 -6.4580 0
M  V30 77 Ga 1.4313 0.7227 -6.7270 0
M  V30 78 Ba 1.8487 -0.6684 -6.9564 0
M  V30 79 Ba 3.6966 -3.4141 -3.2907 0
M  V30 80 Ga 3.1089 -3.0854 -4.6066 0
M  V30 81 Ba 2.5614 -2.7646 -5.9418 0
M  V30 82 Ba 1.3754 4.3306 5.2173 0
M  V30 83 Ga 1.4968 2.9332 5.6734 0
M  V30 84 Ba 1.6152 1.5349 6.1275 0
M  V30 85 Ba 3.5652 -5.2798 -1.7143 0
M  V30 86 Ga 2.5347 -6.3181 -1.5523 0
M  V30 87 Ba 1.3660 -7.1920 -1.3591 0
M  V30 88 Ba 2.5730 -3.9698 -0.0223 0
M  V30 89 Ga 1.5326 -4.9584 0.3200 0
M  V30 90 Ba 0.4717 -5.9739 0.4578 0
M  V30 91 Ba 0.1424 5.9574 2.3758 0
M  V30 92 Ga -1.0898 5.8357 1.5721 0
M  V30 93 Ba -2.3357 5.6833 0.7954 0
M  V30 94 Ba -2.7585 -2.4806 4.3046 0
M  V30 95 Ga -1.4634 -1.8801 4.7620 0
M  V30 96 Ba -0.1224 -1.4067 5.2354 0
M  V30 97 Ba 2.2849 0.6457 -0.3603 0
M  V30 98 Ga 2.3924 -0.7038 -0.9464 0
M  V30 99 Ba 2.3890 -2.0209 -1.6109 0
M  V30 END ATOM
M  V30 BEGIN BOND
M  V30 1 1 1 2
M  V30 2 1 1 3
M  V30 3 1 1 4
M  V30 4 1 1 5
M  V30 5 1 6 7
M  V30 6 1 6 8
M  V30 7 1 6 9
M  V30 8 1 6 10
M  V30 9 1 11 12
M  V30 10 1 11 13
M  V30 11 1 11 14
M  V30 12 1 11 15
M  V30 13 1 16 17
M  V30 14 1 16 18
M  V30 15 1 16 19
M  V30 16 1 16 20
M  V30 17 1 21 22
M  V30 18 1 21 23
M  V30 19 1 21 24
M  V30 20 1 21 25
M  V30 21 1 26 27
M  V30 22 1 26 28
M  V30 23 1 26 29
M  V30 24 1 26 30
M  V30 25 1 31 32
M  V30 26 1 31 33
M  V30 27 1 31 34
M  V30 28 1 31 35
M  V30 29 1 36 37
M  V30 30 1 36 38
M  V30 31 1 36 39
M  V30 32 1 36 40
M  V30 33 1 41 42
M  V30 34 1 41 43
M  V30 35 1 41 44
M  V30 36 1 41 45
M  V30 37 1 46 47
M  V30 38 1 47 48
M  V30 39 1 49 50
M  V30 40 1 50 51
M  V30 41 1 52 53
M  V30 42 1 53 54
M  V30 43 1 55 56
M  V30 44 1 56 57
M  V30 45 1 58 59
M  V30 46 1 59 60
M  V30 47 1 61 62
M  V30 48 1 62 63
M  V30 49 1 64 65
M  V30 50 1 65 66
M  V30 51 1 67 68
M  V30 52 1 68 69
M  V30 53 1 70 71
M  V30 54 1 71 72
M  V30 55 1 73 74
M  V30 56 1 74 75
M  V30 57 1 76 77
M  V30 58 1 77 78
M  V30 59 1 79 80
M  V30 60 1 80 81
M  V30 61 1 82 83
M  V30 62 1 83 84
M  V30 63 1 85 86
M  V30 64 1 86 87
M  V30 65 1 88 89
M  V30 66 1 89 90
M  V30 67 1 91 92
M  V30 68 1 92 93
M  V30 69 1 94 95
M  V30 70 1 95 96
M  V30 71 1 97 98
M  V30 72 1 98 99
M  V30 73 1 2 55
M  V30 74 1 3 70
M  V30 75 1 4 97
M  V30 76 1 5 73
M  V30 77 1 7 88
M  V30 78 1 8 85
M  V30 79 1 9 99
M  V30 80 1 10 79
M  V30 81 1 12 49
M  V30 82 1 13 87
M  V30 83 1 14 61
M  V30 84 1 15 90
M  V30 85 1 17 67
M  V30 86 1 18 46
M  V30 87 1 19 76
M  V30 88 1 20 57
M  V30 89 1 22 58
M  V30 90 1 23 52
M  V30 91 1 24 51
M  V30 92 1 25 94
M  V30 93 1 27 78
M  V30 94 1 28 69
M  V30 95 1 29 63
M  V30 96 1 30 81
M  V30 97 1 32 64
M  V30 98 1 33 82
M  V30 99 1 34 91
M  V30 100 1 35 72
M  V30 101 1 37 84
M  V30 102 1 38 96
M  V30 103 1 39 75
M  V30 104 1 40 60
M  V30 105 1 42 48
M  V30 106 1 43 93
M  V30 107 1 44 66
M  V30 108 1 45 54
M  V30 END BOND
M  V30 END CTAB
M  END

$$$$
