
     RDKit          3D

  0  0  0  0  0  0  0  0  0  0999 V3000
M  V30 BEGIN CTAB
M  V30 COUNTS 99 108 0 0 0
M  V30 BEGIN ATOM
M  V30 1 Pd -2.3685 -2.3529 -3.6899 0
M  V30 2 Pb -3.3491 -2.4280 -3.5233 0
M  V30 3 Pb -2.2777 -2.8544 -2.8285 0
M  V30 4 Pb -2.5259 -1.8338 -4.5322 0
M  V30 5 Pb -1.3815 -2.2042 -3.7838 0
M  V30 6 Pd 4.3098 -5.0551 3.6214 0
M  V30 7 Pb 4.3133 -4.1684 4.0867 0
M  V30 8 Pb 3.3938 -5.2466 3.9786 0
M  V30 9 Pb 5.1608 -4.8651 3.1288 0
M  V30 10 Pb 4.2598 -5.9412 3.1667 0
M  V30 11 Pd -1.9464 3.8780 4.3287 0
M  V30 12 Pb -2.1704 3.0324 4.8042 0
M  V30 13 Pb -1.0484 3.9236 4.7769 0
M  V30 14 Pb -1.7597 4.7165 3.8186 0
M  V30 15 Pb -2.8651 3.8538 3.8977 0
M  V30 16 Pd 0.8150 6.6807 -2.1452 0
M  V30 17 Pb 0.2774 6.9431 -1.3460 0
M  V30 18 Pb 1.3583 6.3794 -2.9227 0
M  V30 19 Pb 1.6107 6.7025 -1.5448 0
M  V30 20 Pb -0.0168 6.5878 -2.7154 0
M  V30 21 Pd 3.6045 2.7020 3.6423 0
M  V30 22 Pb 3.6431 1.8505 4.1662 0
M  V30 23 Pb 2.9610 3.1012 4.3009 0
M  V30 24 Pb 3.6312 3.5476 3.1104 0
M  V30 25 Pb 4.2313 2.2992 2.9772 0
M  V30 26 Pd -2.5792 2.9870 -5.3108 0
M  V30 27 Pb -1.6957 3.0288 -5.7669 0
M  V30 28 Pb -3.4523 2.9728 -4.8221 0
M  V30 29 Pb -2.7306 2.0675 -5.6808 0
M  V30 30 Pb -2.4148 3.9204 -4.9481 0
M  V30 31 Pd -6.1971 1.1154 1.1346 0
M  V30 32 Pb -6.4204 0.3089 0.5904 0
M  V30 33 Pb -6.3021 1.6411 0.2909 0
M  V30 34 Pb -5.9117 1.9397 1.6493 0
M  V30 35 Pb -6.0321 0.5758 1.9551 0
M  V30 36 Pd 4.9807 -3.0429 -1.2840 0
M  V30 37 Pb 5.2984 -2.1786 -0.8972 0
M  V30 38 Pb 4.6200 -3.8794 -1.6959 0
M  V30 39 Pb 5.5752 -3.5130 -0.6238 0
M  V30 40 Pb 4.3638 -2.5727 -1.9162 0
M  V30 41 Pd -0.7119 -7.0023 -0.3437 0
M  V30 42 Pb -0.9264 -6.9356 0.6300 0
M  V30 43 Pb -1.2898 -6.2043 -0.5146 0
M  V30 44 Pb -0.2765 -6.9615 -1.2376 0
M  V30 45 Pb -0.0313 -7.6896 -0.1089 0
M  V30 46 Ag 4.2643 -3.5161 4.4567 0
M  V30 47 Fe 3.9932 -1.1556 4.4953 0
M  V30 48 Ag 3.7236 1.2049 4.5407 0
M  V30 49 Ag -4.0529 -2.4504 -3.2729 0
M  V30 50 Fe -5.4407 -1.4524 -1.6285 0
M  V30 51 Ag -6.5279 -0.2463 0.1006 0
M  V30 52 Ag 4.6887 1.9942 2.4688 0
M  V30 53 Fe 5.1337 0.2411 0.9318 0
M  V30 54 Ag 5.5301 -1.5358 -0.5910 0
M  V30 55 Ag 2.1475 6.6812 -1.0254 0
M  V30 56 Fe 2.9732 5.4605 0.8346 0
M  V30 57 Ag 3.7018 4.1562 2.6786 0
M  V30 58 Ag 1.6323 6.0651 -3.5363 0
M  V30 59 Fe 0.6732 4.5522 -5.0708 0
M  V30 60 Ag -1.0017 3.1681 -5.9887 0
M  V30 61 Ag 4.1198 -6.5866 2.8192 0
M  V30 62 Fe 2.4632 -7.5809 1.4502 0
M  V30 63 Ag 0.5641 -8.0707 0.1238 0
M  V30 64 Ag 2.6768 -5.4248 4.1170 0
M  V30 65 Fe 0.7361 -6.1383 2.9464 0
M  V30 66 Ag -0.9044 -6.8255 1.3712 0
M  V30 67 Ag -2.4581 2.3884 5.0367 0
M  V30 68 Fe -4.1387 1.0055 4.1218 0
M  V30 69 Ag -5.7871 0.2849 2.5931 0
M  V30 70 Ag -1.6648 5.3287 3.3974 0
M  V30 71 Fe -0.8887 6.2726 1.3625 0
M  V30 72 Ag -0.0739 7.1055 -0.7054 0
M  V30 73 Ag -0.6519 -2.0301 -3.8477 0
M  V30 74 Fe 1.6100 -2.1523 -3.1265 0
M  V30 75 Ag 3.8703 -2.2811 -2.4014 0
M  V30 76 Ag 4.2461 -4.4191 -2.0595 0
M  V30 77 Fe 2.2732 -5.7381 -2.0980 0
M  V30 78 Ag 0.2297 -6.9022 -1.7823 0
M  V30 79 Ag -4.0879 3.0057 -4.4239 0
M  V30 80 Fe -5.2579 2.5137 -2.4160 0
M  V30 81 Ag -6.3523 1.9784 -0.3769 0
M  V30 82 Ba -3.5687 3.9014 3.6029 0
M  V30 83 Ga -4.5917 3.1655 2.8059 0
M  V30 84 Ba -5.7173 2.5720 2.0283 0
M  V30 85 Ba -0.6498 6.5317 -3.1368 0
M  V30 86 Ga -1.4416 5.5281 -3.9048 0
M  V30 87 Ba -2.3328 4.6404 -4.7059 0
M  V30 88 Ba 5.7600 -4.7652 2.6853 0
M  V30 89 Ga 5.9070 -4.2829 1.2931 0
M  V30 90 Ba 6.0384 -3.8001 -0.1005 0
M  V30 91 Ba -2.6680 -1.4478 -5.1615 0
M  V30 92 Ga -2.7411 -0.0238 -5.5508 0
M  V30 93 Ba -2.8260 1.3861 -5.9859 0
M  V30 94 Ba -2.3477 -3.2003 -2.1650 0
M  V30 95 Ga -1.9650 -4.4168 -1.4215 0
M  V30 96 Ba -1.6837 -5.5662 -0.5389 0
M  V30 97 Ba -0.3915 3.9816 5.1436 0
M  V30 98 Ga 1.0409 3.6727 4.9350 0
M  V30 99 Ba 2.4897 3.3972 4.8089 0
M  V30 END ATOM
M  V30 BEGIN BOND
M  V30 1 1 1 2
M  V30 2 1 1 3
M  V30 3 1 1 4
M  V30 4 1 1 5
M  V30 5 1 6 7
M  V30 6 1 6 8
M  V30 7 1 6 9
M  V30 8 1 6 10
M  V30 9 1 11 12
M  V30 10 1 11 13
M  V30 11 1 11 14
M  V30 12 1 11 15
M  V30 13 1 16 17
M  V30 14 1 16 18
M  V30 15 1 16 19
M  V30 16 1 16 20
M  V30 17 1 21 22
M  V30 18 1 21 23
M  V30 19 1 21 24
M  V30 20 1 21 25
M  V30 21 1 26 27
M  V30 22 1 26 28
M  V30 23 1 26 29
M  V30 24 1 26 30
M  V30 25 1 31 32
M  V30 26 1 31 33
M  V30 27 1 31 34
M  V30 28 1 31 35
M  V30 29 1 36 37
M  V30 30 1 36 38
M  V30 31 1 36 39
M  V30 32 1 36 40
M  V30 33 1 41 42
M  V30 34 1 41 43
M  V30 35 1 41 44
M  V30 36 1 41 45
M  V30 37 1 46 47
M  V30 38 1 47 48
M  V30 39 1 49 50
M  V30 40 1 50 51
M  V30 41 1 52 53
M  V30 42 1 53 54
M  V30 43 1 55 56
M  V30 44 1 56 57
M  V30 45 1 58 59
M  V30 46 1 59 60
M  V30 47 1 61 62
M  V30 48 1 62 63
M  V30 49 1 64 65
M  V30 50 1 65 66
M  V30 51 1 67 68
M  V30 52 1 68 69
M  V30 53 1 70 71
M  V30 54 1 71 72
M  V30 55 1 73 74
M  V30 56 1 74 75
M  V30 57 1 76 77
M  V30 58 1 77 78
M  V30 59 1 79 80
M  V30 60 1 80 81
M  V30 61 1 82 83
M  V30 62 1 83 84
M  V30 63 1 85 86
M  V30 64 1 86 87
M  V30 65 1 88 89
M  V30 66 1 89 90
M  V30 67 1 91 92
M  V30 68 1 92 93
M  V30 69 1 94 95
M  V30 70 1 95 96
M  V30 71 1 97 98
M  V30 72 1 98 99
M  V30 73 1 2 49
M  V30 74 1 3 94
M  V30 75 1 4 91
M  V30 76 1 5 73
M  V30 77 1 7 46
M  V30 78 1 8 64
M  V30 79 1 9 88
M  V30 80 1 10 61
M  V30 81 1 12 67
M  V30 82 1 13 97
M  V30 83 1 14 70
M  V30 84 1 15 82
M  V30 85 1 17 72
M  V30 86 1 18 58
M  V30 87 1 19 55
M  V30 88 1 20 85
M  V30 89 1 22 48
M  V30 90 1 23 99
M  V30 91 1 24 57
M  V30 92 1 25 52
M  V30 93 1 27 60
M  V30 94 1 28 79
M  V30 95 1 29 93
M  V30 96 1 30 87
M  V30 97 1 32 51
M  V30 98 1 33 81
M  V30 99 1 34 84
M  V30 100 1 35 69
M  V30 101 1 37 54
M  V30 102 1 38 76
M  V30 103 1 39 90
M  V30 104 1 40 75
M  V30 105 1 42 66
M  V30 106 1 43 96
M  V30 107 1 44 78
M  V30 108 1 45 63
M  V30 END BOND
M  V30 END CTAB
M  END

$$$$
