
     RDKit          3D

  0  0  0  0  0  0  0  0  0  0999 V3000
M  V30 BEGIN CTAB
M  V30 COUNTS 99 108 0 0 0
M  V30 BEGIN ATOM
M  V30 1 Pd -0.1193 -4.5299 1.1845 0
M  V30 2 Pb -0.4516 -4.4081 2.1231 0
M  V30 3 Pb -1.0595 -4.6281 0.8661 0
M  V30 4 Pb 0.8262 -4.5663 1.5122 0
M  V30 5 Pb 0.1668 -4.5502 0.2253 0
M  V30 6 Pd 5.5010 -2.8784 0.7554 0
M  V30 7 Pb 5.0739 -2.9406 -0.1433 0
M  V30 8 Pb 6.1835 -2.2487 0.3578 0
M  V30 9 Pb 4.8266 -3.4841 1.1784 0
M  V30 10 Pb 5.9093 -2.7201 1.6520 0
M  V30 11 Pd 6.2564 2.4763 -1.1097 0
M  V30 12 Pb 5.6600 3.2709 -1.2069 0
M  V30 13 Pb 6.7865 1.6304 -0.9724 0
M  V30 14 Pb 6.6814 2.8739 -0.2962 0
M  V30 15 Pb 5.7947 2.0214 -1.8678 0
M  V30 16 Pd -1.2046 -0.0898 3.9173 0
M  V30 17 Pb -1.0577 0.8629 3.6837 0
M  V30 18 Pb -2.1551 0.1452 4.1338 0
M  V30 19 Pb -0.2179 -0.2909 3.7669 0
M  V30 20 Pb -1.3425 -1.0611 4.1316 0
M  V30 21 Pd -0.7853 4.2351 -3.1540 0
M  V30 22 Pb -1.6052 3.8804 -3.6041 0
M  V30 23 Pb -1.3449 4.6631 -2.4461 0
M  V30 24 Pb 0.0484 4.6039 -2.7453 0
M  V30 25 Pb -0.2287 3.6927 -3.7809 0
M  V30 26 Pd 4.7657 1.3552 3.4300 0
M  V30 27 Pb 3.9580 0.7385 3.5056 0
M  V30 28 Pb 4.1727 2.1243 3.2282 0
M  V30 29 Pb 5.5541 1.9486 3.2691 0
M  V30 30 Pb 5.3614 0.5803 3.6450 0
M  V30 31 Pd -6.5611 -1.8224 -1.8147 0
M  V30 32 Pb -6.8598 -0.8856 -1.9982 0
M  V30 33 Pb -6.1411 -1.9189 -2.7180 0
M  V30 34 Pb -6.9809 -1.7586 -0.9122 0
M  V30 35 Pb -6.1794 -2.7044 -1.5588 0
M  V30 36 Pd -1.8575 -0.5552 -4.8036 0
M  V30 37 Pb -2.7029 -1.0919 -4.8088 0
M  V30 38 Pb -1.0263 -0.0021 -4.8825 0
M  V30 39 Pb -1.3134 -1.3638 -4.5673 0
M  V30 40 Pb -2.3975 0.2720 -4.9516 0
M  V30 41 Pd -5.9619 1.8569 1.5601 0
M  V30 42 Pb -5.5530 1.7079 2.4626 0
M  V30 43 Pb -6.5207 1.0451 1.7050 0
M  V30 44 Pb -6.3637 1.9454 0.6449 0
M  V30 45 Pb -5.4074 2.6708 1.3855 0
M  V30 46 Ag -0.8334 1.5440 3.5055 0
M  V30 47 Fe 1.2901 2.5132 3.1982 0
M  V30 48 Ag 3.6402 2.6223 3.1083 0
M  V30 49 Ag -1.7490 -4.7652 0.6106 0
M  V30 50 Fe -3.8052 -4.0872 -0.3552 0
M  V30 51 Ag -5.8291 -3.3163 -1.3195 0
M  V30 52 Ag 5.1627 3.8270 -1.2635 0
M  V30 53 Fe 2.9404 4.4159 -1.8527 0
M  V30 54 Ag 0.6954 4.8680 -2.4757 0
M  V30 55 Ag 0.3030 -4.5025 -0.5124 0
M  V30 56 Fe -0.2382 -3.2848 -2.4816 0
M  V30 57 Ag -0.9019 -1.9494 -4.3337 0
M  V30 58 Ag -1.7708 4.8945 -1.8751 0
M  V30 59 Fe -3.3932 4.1816 -0.2948 0
M  V30 60 Ag -5.0052 3.2744 1.1941 0
M  V30 61 Ag 4.8169 -2.7845 -0.8231 0
M  V30 62 Fe 4.9104 -0.7387 -1.9991 0
M  V30 63 Ag 5.4527 1.5378 -2.3185 0
M  V30 64 Ba -7.0486 -0.1612 -2.0551 0
M  V30 65 Ga -6.8766 0.9375 -1.0813 0
M  V30 66 Ba -6.6634 1.9710 -0.0459 0
M  V30 67 Ba -2.8404 0.3797 4.3399 0
M  V30 68 Ga -4.0472 0.9564 3.7095 0
M  V30 69 Ba -5.2839 1.5368 3.1438 0
M  V30 70 Ba 0.5130 -0.5104 3.6865 0
M  V30 71 Ga 1.9301 -0.0381 3.6117 0
M  V30 72 Ba 3.4019 0.2087 3.5158 0
M  V30 73 Ba 6.1994 -2.5282 2.3142 0
M  V30 74 Ga 6.0225 -1.2900 3.0939 0
M  V30 75 Ba 5.7855 -0.0190 3.8020 0
M  V30 76 Ba -5.8305 -2.0500 -3.3889 0
M  V30 77 Ga -4.5742 -1.7360 -4.0985 0
M  V30 78 Ba -3.3487 -1.4702 -4.8781 0
M  V30 79 Ba 6.7222 -1.7946 0.0734 0
M  V30 80 Ga 6.9026 -0.3949 -0.3932 0
M  V30 81 Ba 7.1714 0.9845 -0.8777 0
M  V30 82 Ba -0.7309 -4.2754 2.8101 0
M  V30 83 Ga -1.0713 -3.0420 3.5551 0
M  V30 84 Ba -1.4054 -1.7972 4.2837 0
M  V30 85 Ba -7.2807 -1.6980 -0.2303 0
M  V30 86 Ga -7.1423 -0.6644 0.8052 0
M  V30 87 Ba -6.9326 0.4264 1.7673 0
M  V30 88 Ba 0.1717 3.2196 -4.2012 0
M  V30 89 Ga -0.0989 1.8282 -4.6110 0
M  V30 90 Ba -0.4274 0.4399 -4.9879 0
M  V30 91 Ba 1.5145 -4.6818 1.7910 0
M  V30 92 Ga 2.9186 -4.2606 1.6180 0
M  V30 93 Ba 4.3564 -3.9326 1.5535 0
M  V30 94 Ba -2.1968 3.6055 -3.9748 0
M  V30 95 Ga -2.5220 2.2684 -4.5045 0
M  V30 96 Ba -2.7883 0.9084 -5.0082 0
M  V30 97 Ba 6.9718 3.1202 0.3501 0
M  V30 98 Ga 6.5946 2.8005 1.7398 0
M  V30 99 Ba 6.1204 2.4016 3.0784 0
M  V30 END ATOM
M  V30 BEGIN BOND
M  V30 1 1 1 2
M  V30 2 1 1 3
M  V30 3 1 1 4
M  V30 4 1 1 5
M  V30 5 1 6 7
M  V30 6 1 6 8
M  V30 7 1 6 9
M  V30 8 1 6 10
M  V30 9 1 11 12
M  V30 10 1 11 13
M  V30 11 1 11 14
M  V30 12 1 11 15
M  V30 13 1 16 17
M  V30 14 1 16 18
M  V30 15 1 16 19
M  V30 16 1 16 20
M  V30 17 1 21 22
M  V30 18 1 21 23
M  V30 19 1 21 24
M  V30 20 1 21 25
M  V30 21 1 26 27
M  V30 22 1 26 28
M  V30 23 1 26 29
M  V30 24 1 26 30
M  V30 25 1 31 32
M  V30 26 1 31 33
M  V30 27 1 31 34
M  V30 28 1 31 35
M  V30 29 1 36 37
M  V30 30 1 36 38
M  V30 31 1 36 39
M  V30 32 1 36 40
M  V30 33 1 41 42
M  V30 34 1 41 43
M  V30 35 1 41 44
M  V30 36 1 41 45
M  V30 37 1 46 47
M  V30 38 1 47 48
M  V30 39 1 49 50
M  V30 40 1 50 51
M  V30 41 1 52 53
M  V30 42 1 53 54
M  V30 43 1 55 56
M  V30 44 1 56 57
M  V30 45 1 58 59
M  V30 46 1 59 60
M  V30 47 1 61 62
M  V30 48 1 62 63
M  V30 49 1 64 65
M  V30 50 1 65 66
M  V30 51 1 67 68
M  V30 52 1 68 69
M  V30 53 1 70 71
M  V30 54 1 71 72
M  V30 55 1 73 74
M  V30 56 1 74 75
M  V30 57 1 76 77
M  V30 58 1 77 78
M  V30 59 1 79 80
M  V30 60 1 80 81
M  V30 61 1 82 83
M  V30 62 1 83 84
M  V30 63 1 85 86
M  V30 64 1 86 87
M  V30 65 1 88 89
M  V30 66 1 89 90
M  V30 67 1 91 92
M  V30 68 1 92 93
M  V30 69 1 94 95
M  V30 70 1 95 96
M  V30 71 1 97 98
M  V30 72 1 98 99
M  V30 73 1 2 82
M  V30 74 1 3 49
M  V30 75 1 4 91
M  V30 76 1 5 55
M  V30 77 1 7 61
M  V30 78 1 8 79
M  V30 79 1 9 93
M  V30 80 1 10 73
M  V30 81 1 12 52
M  V30 82 1 13 81
M  V30 83 1 14 97
M  V30 84 1 15 63
M  V30 85 1 17 46
M  V30 86 1 18 67
M  V30 87 1 19 70
M  V30 88 1 20 84
M  V30 89 1 22 94
M  V30 90 1 23 58
M  V30 91 1 24 54
M  V30 92 1 25 88
M  V30 93 1 27 72
M  V30 94 1 28 48
M  V30 95 1 29 99
M  V30 96 1 30 75
M  V30 97 1 32 64
M  V30 98 1 33 76
M  V30 99 1 34 85
M  V30 100 1 35 51
M  V30 101 1 37 78
M  V30 102 1 38 90
M  V30 103 1 39 57
M  V30 104 1 40 96
M  V30 105 1 42 69
M  V30 106 1 43 87
M  V30 107 1 44 66
M  V30 108 1 45 60
M  V30 END BOND
M  V30 END CTAB
M  END

$$$$
