
     RDKit          3D

  0  0  0  0  0  0  0  0  0  0999 V3000
M  V30 BEGIN CTAB
M  V30 COUNTS 99 108 0 0 0
M  V30 BEGIN ATOM
M  V30 1 Pd -1.3258 4.6286 -1.1228 0
M  V30 2 Pb -0.5771 5.2687 -0.9262 0
M  V30 3 Pb -1.7923 4.9930 -0.3159 0
M  V30 4 Pb -0.8497 4.2023 -1.9012 0
M  V30 5 Pb -2.1535 4.1017 -1.3401 0
M  V30 6 Pd 4.1406 5.8766 0.4499 0
M  V30 7 Pb 3.9029 5.6087 1.3791 0
M  V30 8 Pb 5.0197 5.3843 0.5499 0
M  V30 9 Pb 3.2509 6.3053 0.2966 0
M  V30 10 Pb 4.3882 6.0411 -0.4990 0
M  V30 11 Pd 4.6751 0.7649 -4.1667 0
M  V30 12 Pb 4.4293 -0.2005 -4.0731 0
M  V30 13 Pb 4.9184 1.7270 -4.2498 0
M  V30 14 Pb 5.6100 0.5370 -3.8923 0
M  V30 15 Pb 3.7251 1.0449 -4.3349 0
M  V30 16 Pd 6.6188 0.6093 0.7001 0
M  V30 17 Pb 7.0433 0.4425 -0.1935 0
M  V30 18 Pb 6.3756 -0.3572 0.7752 0
M  V30 19 Pb 6.1737 0.7903 1.5734 0
M  V30 20 Pb 6.8162 1.6000 0.6405 0
M  V30 21 Pd 0.9767 -3.6965 3.0277 0
M  V30 22 Pb 0.0600 -3.5791 3.4213 0
M  V30 23 Pb 1.8868 -3.7955 2.6273 0
M  V30 24 Pb 0.7623 -4.6545 2.8657 0
M  V30 25 Pb 1.1302 -2.7147 3.0880 0
M  V30 26 Pd -6.9376 -0.7899 -0.2473 0
M  V30 27 Pb -7.0711 -1.6728 0.2120 0
M  V30 28 Pb -6.7155 -1.2802 -1.0760 0
M  V30 29 Pb -6.6581 0.0576 -0.7030 0
M  V30 30 Pb -7.1451 -0.2646 0.5719 0
M  V30 31 Pd -3.6431 -5.2108 1.3493 0
M  V30 32 Pb -3.5137 -4.7005 2.1986 0
M  V30 33 Pb -2.7726 -5.6741 1.5254 0
M  V30 34 Pb -3.6457 -5.6961 0.4747 0
M  V30 35 Pb -4.5702 -4.8237 1.2325 0
M  V30 36 Pd -0.7245 -3.7858 -2.3307 0
M  V30 37 Pb -1.3930 -3.4821 -1.6405 0
M  V30 38 Pb -1.6350 -3.5910 -2.6644 0
M  V30 39 Pb 0.2118 -4.0335 -2.5625 0
M  V30 40 Pb -1.0869 -4.7163 -2.2557 0
M  V30 41 Pd -3.4746 1.8408 2.2848 0
M  V30 42 Pb -3.4307 2.8304 2.4088 0
M  V30 43 Pb -4.4681 1.8582 2.3768 0
M  V30 44 Pb -2.4805 1.7896 2.3040 0
M  V30 45 Pb -3.5070 0.8645 2.0416 0
M  V30 46 Ag -0.5312 3.8295 -2.4785 0
M  V30 47 Fe 1.2463 2.5782 -3.4535 0
M  V30 48 Ag 3.0311 1.3304 -4.4196 0
M  V30 49 Ag 4.2622 -0.9268 -3.9834 0
M  V30 50 Fe 2.6784 -2.5937 -3.3953 0
M  V30 51 Ag 0.9272 -4.0685 -2.7712 0
M  V30 52 Ag 1.1754 -1.9713 3.0584 0
M  V30 53 Fe -0.1480 -0.0340 2.7325 0
M  V30 54 Ag -1.7483 1.6779 2.3874 0
M  V30 55 Ag -2.8181 3.7870 -1.5124 0
M  V30 56 Fe -4.5865 2.2148 -1.2614 0
M  V30 57 Ag -6.3783 0.6632 -1.0511 0
M  V30 58 Ag 6.1504 -1.0679 0.8509 0
M  V30 59 Fe 4.4085 -2.5137 1.5661 0
M  V30 60 Ag 2.5729 -3.8129 2.3270 0
M  V30 61 Ag -1.8665 -3.2527 -1.0950 0
M  V30 62 Fe -2.6979 -1.5555 0.3572 0
M  V30 63 Ag -3.5266 0.1451 1.8071 0
M  V30 64 Ag 4.5950 6.0249 -1.2128 0
M  V30 65 Fe 4.8924 4.3951 -2.9030 0
M  V30 66 Ag 5.0435 2.4616 -4.2602 0
M  V30 67 Ag -6.4631 -1.6330 -1.6717 0
M  V30 68 Fe -4.4634 -2.6067 -2.4574 0
M  V30 69 Ag -2.3202 -3.4784 -2.9183 0
M  V30 70 Ag 3.8315 5.2330 2.0150 0
M  V30 71 Fe 4.6631 3.0883 2.5440 0
M  V30 72 Ag 5.8053 1.0577 2.1618 0
M  V30 73 Ba -0.6314 -3.4924 3.7108 0
M  V30 74 Ga -1.9920 -3.8916 3.2921 0
M  V30 75 Ba -3.3246 -4.3203 2.8167 0
M  V30 76 Ba 6.2956 0.3789 -3.6304 0
M  V30 77 Ga 6.8432 0.3412 -2.2581 0
M  V30 78 Ba 7.3497 0.3153 -0.8698 0
M  V30 79 Ba -7.2503 0.1899 1.1527 0
M  V30 80 Ga -6.2695 1.0291 1.8550 0
M  V30 81 Ba -5.2076 1.8258 2.4856 0
M  V30 82 Ba 5.6952 5.0328 0.5860 0
M  V30 83 Ga 6.2797 3.6622 0.6086 0
M  V30 84 Ba 6.9759 2.3449 0.6355 0
M  V30 85 Ba -2.1316 5.2227 0.3131 0
M  V30 86 Ga -2.7692 4.4572 1.3997 0
M  V30 87 Ba -3.3756 3.5766 2.4145 0
M  V30 88 Ba 0.5224 -5.3389 2.6948 0
M  V30 89 Ga -0.8002 -5.7367 2.1830 0
M  V30 90 Ba -2.1440 -6.0594 1.6729 0
M  V30 91 Ba -7.1242 -2.3601 0.5200 0
M  V30 92 Ga -6.1701 -3.4492 0.8538 0
M  V30 93 Ba -5.2958 -4.5935 1.2187 0
M  V30 94 Ba -3.4996 -6.0669 -0.1623 0
M  V30 95 Ga -2.5056 -5.7643 -1.2145 0
M  V30 96 Ba -1.4843 -5.3531 -2.2019 0
M  V30 97 Ba -0.1138 5.8384 -0.7503 0
M  V30 98 Ga 1.2565 6.1679 -0.3052 0
M  V30 99 Ba 2.5914 6.6240 0.1371 0
M  V30 END ATOM
M  V30 BEGIN BOND
M  V30 1 1 1 2
M  V30 2 1 1 3
M  V30 3 1 1 4
M  V30 4 1 1 5
M  V30 5 1 6 7
M  V30 6 1 6 8
M  V30 7 1 6 9
M  V30 8 1 6 10
M  V30 9 1 11 12
M  V30 10 1 11 13
M  V30 11 1 11 14
M  V30 12 1 11 15
M  V30 13 1 16 17
M  V30 14 1 16 18
M  V30 15 1 16 19
M  V30 16 1 16 20
M  V30 17 1 21 22
M  V30 18 1 21 23
M  V30 19 1 21 24
M  V30 20 1 21 25
M  V30 21 1 26 27
M  V30 22 1 26 28
M  V30 23 1 26 29
M  V30 24 1 26 30
M  V30 25 1 31 32
M  V30 26 1 31 33
M  V30 27 1 31 34
M  V30 28 1 31 35
M  V30 29 1 36 37
M  V30 30 1 36 38
M  V30 31 1 36 39
M  V30 32 1 36 40
M  V30 33 1 41 42
M  V30 34 1 41 43
M  V30 35 1 41 44
M  V30 36 1 41 45
M  V30 37 1 46 47
M  V30 38 1 47 48
M  V30 39 1 49 50
M  V30 40 1 50 51
M  V30 41 1 52 53
M  V30 42 1 53 54
M  V30 43 1 55 56
M  V30 44 1 56 57
M  V30 45 1 58 59
M  V30 46 1 59 60
M  V30 47 1 61 62
M  V30 48 1 62 63
M  V30 49 1 64 65
M  V30 50 1 65 66
M  V30 51 1 67 68
M  V30 52 1 68 69
M  V30 53 1 70 71
M  V30 54 1 71 72
M  V30 55 1 73 74
M  V30 56 1 74 75
M  V30 57 1 76 77
M  V30 58 1 77 78
M  V30 59 1 79 80
M  V30 60 1 80 81
M  V30 61 1 82 83
M  V30 62 1 83 84
M  V30 63 1 85 86
M  V30 64 1 86 87
M  V30 65 1 88 89
M  V30 66 1 89 90
M  V30 67 1 91 92
M  V30 68 1 92 93
M  V30 69 1 94 95
M  V30 70 1 95 96
M  V30 71 1 97 98
M  V30 72 1 98 99
M  V30 73 1 2 97
M  V30 74 1 3 85
M  V30 75 1 4 46
M  V30 76 1 5 55
M  V30 77 1 7 70
M  V30 78 1 8 82
M  V30 79 1 9 99
M  V30 80 1 10 64
M  V30 81 1 12 49
M  V30 82 1 13 66
M  V30 83 1 14 76
M  V30 84 1 15 48
M  V30 85 1 17 78
M  V30 86 1 18 58
M  V30 87 1 19 72
M  V30 88 1 20 84
M  V30 89 1 22 73
M  V30 90 1 23 60
M  V30 91 1 24 88
M  V30 92 1 25 52
M  V30 93 1 27 91
M  V30 94 1 28 67
M  V30 95 1 29 57
M  V30 96 1 30 79
M  V30 97 1 32 75
M  V30 98 1 33 90
M  V30 99 1 34 94
M  V30 100 1 35 93
M  V30 101 1 37 61
M  V30 102 1 38 69
M  V30 103 1 39 51
M  V30 104 1 40 96
M  V30 105 1 42 87
M  V30 106 1 43 81
M  V30 107 1 44 54
M  V30 108 1 45 63
M  V30 END BOND
M  V30 END CTAB
M  END

$$$$
