
     RDKit          3D

  0  0  0  0  0  0  0  0  0  0999 V3000
M  V30 BEGIN CTAB
M  V30 COUNTS 99 108 0 0 0
M  V30 BEGIN ATOM
M  V30 1 Pd -1.3678 -1.7757 -3.8798 0
M  V30 2 Pb -0.8018 -1.1950 -4.4643 0
M  V30 3 Pb -1.9890 -2.3146 -3.3047 0
M  V30 4 Pb -2.1079 -1.1165 -4.0110 0
M  V30 5 Pb -0.5815 -2.3928 -3.7786 0
M  V30 6 Pd -2.2707 -6.7066 4.9124 0
M  V30 7 Pb -1.9149 -5.7864 5.0780 0
M  V30 8 Pb -3.2180 -6.3832 4.9212 0
M  V30 9 Pb -1.3316 -7.0052 4.7680 0
M  V30 10 Pb -2.6140 -7.6143 4.6776 0
M  V30 11 Pd 4.5193 5.6282 -0.3808 0
M  V30 12 Pb 4.1443 6.3618 -0.9465 0
M  V30 13 Pb 4.8767 4.8682 0.1617 0
M  V30 14 Pb 4.2130 6.1132 0.4382 0
M  V30 15 Pb 4.8018 5.1505 -1.2111 0
M  V30 16 Pd -0.0286 5.8190 2.8527 0
M  V30 17 Pb 0.8513 6.2779 2.7171 0
M  V30 18 Pb -0.8963 5.3768 3.0396 0
M  V30 19 Pb 0.3766 5.2517 3.5675 0
M  V30 20 Pb -0.4502 6.3042 2.0592 0
M  V30 21 Pd 2.9536 -0.9631 3.2288 0
M  V30 22 Pb 2.2129 -1.5244 3.6073 0
M  V30 23 Pb 3.6727 -0.3536 2.8961 0
M  V30 24 Pb 2.6583 -0.2203 3.8292 0
M  V30 25 Pb 3.2926 -1.6643 2.5942 0
M  V30 26 Pd -3.1067 5.2402 -2.2108 0
M  V30 27 Pb -3.6305 4.8626 -1.4581 0
M  V30 28 Pb -2.6241 5.6243 -2.9999 0
M  V30 29 Pb -3.4897 4.5247 -2.7925 0
M  V30 30 Pb -2.6540 5.8898 -1.5659 0
M  V30 31 Pd 1.8725 5.1305 -4.7346 0
M  V30 32 Pb 1.6382 4.2592 -5.1655 0
M  V30 33 Pb 0.9611 5.5017 -4.9112 0
M  V30 34 Pb 2.7822 4.7708 -4.5333 0
M  V30 35 Pb 2.1216 5.9815 -4.2736 0
M  V30 36 Pd 2.0684 -5.2473 -0.6576 0
M  V30 37 Pb 2.7523 -4.6156 -0.2894 0
M  V30 38 Pb 1.3869 -5.8922 -0.9985 0
M  V30 39 Pb 2.1158 -5.7552 0.2006 0
M  V30 40 Pb 1.9994 -4.7572 -1.5279 0
M  V30 41 Pd -4.7025 -7.1639 0.9121 0
M  V30 42 Pb -5.1836 -6.7528 1.6878 0
M  V30 43 Pb -4.7751 -6.3243 0.3732 0
M  V30 44 Pb -4.1084 -7.5275 0.2002 0
M  V30 45 Pb -4.5645 -7.9812 1.4690 0
M  V30 46 Ag -1.6138 -5.1049 5.1692 0
M  V30 47 Fe 0.0343 -3.5181 4.5206 0
M  V30 48 Ag 1.6320 -1.8477 3.9630 0
M  V30 49 Ag -0.4161 -0.7270 -4.9049 0
M  V30 50 Fe 0.5492 1.4208 -5.2120 0
M  V30 51 Ag 1.4948 3.5849 -5.4603 0
M  V30 52 Ag 0.6581 4.7558 4.0525 0
M  V30 53 Fe 1.5715 2.5735 4.2495 0
M  V30 54 Ag 2.4628 0.3731 4.2437 0
M  V30 55 Ag -1.5615 5.0582 3.0643 0
M  V30 56 Fe -3.1389 4.6038 1.3819 0
M  V30 57 Ag -3.9298 4.6129 -0.8315 0
M  V30 58 Ag -0.6345 -7.1630 4.5555 0
M  V30 59 Fe 0.8586 -6.7295 2.7657 0
M  V30 60 Ag 2.1182 -6.1288 0.8487 0
M  V30 61 Ag -2.6230 -0.5832 -4.1223 0
M  V30 62 Fe -3.2640 1.6642 -3.7049 0
M  V30 63 Ag -3.7354 3.9296 -3.1746 0
M  V30 64 Ag 0.8556 -6.3663 -1.2282 0
M  V30 65 Fe -1.3559 -7.1460 -0.8772 0
M  V30 66 Ag -3.5812 -7.7172 -0.2917 0
M  V30 67 Ag -2.5397 -2.6322 -2.8993 0
M  V30 68 Fe -3.6057 -4.2026 -1.4671 0
M  V30 69 Ag -4.7836 -5.7010 -0.0451 0
M  V30 70 Ag 5.1370 4.2698 0.5310 0
M  V30 71 Fe 4.6961 2.2006 1.6095 0
M  V30 72 Ag 4.1926 0.1396 2.6763 0
M  V30 73 Ba 3.6385 -2.1094 2.0919 0
M  V30 74 Ga 3.3938 -3.1487 1.0685 0
M  V30 75 Ba 3.2863 -4.1882 0.0216 0
M  V30 76 Ba 4.9840 4.8011 -1.8476 0
M  V30 77 Ga 4.2555 4.6351 -3.1168 0
M  V30 78 Ba 3.4618 4.5149 -4.3515 0
M  V30 79 Ba -2.9022 -8.2610 4.4355 0
M  V30 80 Ga -3.6726 -8.4976 3.2040 0
M  V30 81 Ba -4.4207 -8.5466 1.9375 0
M  V30 82 Ba -3.9328 -6.1704 4.8300 0
M  V30 83 Ga -4.7660 -6.2774 3.6148 0
M  V30 84 Ba -5.4576 -6.4572 2.3218 0
M  V30 85 Ba 3.8494 6.8852 -1.3946 0
M  V30 86 Ga 3.0843 6.7839 -2.6504 0
M  V30 87 Ba 2.3259 6.5987 -3.9007 0
M  V30 88 Ba -0.7655 6.6790 1.4638 0
M  V30 89 Ga -1.5423 6.4553 0.1997 0
M  V30 90 Ba -2.3148 6.3877 -1.0849 0
M  V30 91 Ba 3.9711 6.5019 1.0321 0
M  V30 92 Ga 2.7347 6.5445 1.8373 0
M  V30 93 Ba 1.5175 6.6226 2.6687 0
M  V30 94 Ba 0.0659 -2.7812 -3.7849 0
M  V30 95 Ga 0.9564 -3.6071 -2.9409 0
M  V30 96 Ba 1.9315 -4.4430 -2.2070 0
M  V30 97 Ba -2.3062 5.9036 -3.6211 0
M  V30 98 Ga -1.0007 5.8421 -4.3072 0
M  V30 99 Ba 0.2871 5.8092 -5.0280 0
M  V30 END ATOM
M  V30 BEGIN BOND
M  V30 1 1 1 2
M  V30 2 1 1 3
M  V30 3 1 1 4
M  V30 4 1 1 5
M  V30 5 1 6 7
M  V30 6 1 6 8
M  V30 7 1 6 9
M  V30 8 1 6 10
M  V30 9 1 11 12
M  V30 10 1 11 13
M  V30 11 1 11 14
M  V30 12 1 11 15
M  V30 13 1 16 17
M  V30 14 1 16 18
M  V30 15 1 16 19
M  V30 16 1 16 20
M  V30 17 1 21 22
M  V30 18 1 21 23
M  V30 19 1 21 24
M  V30 20 1 21 25
M  V30 21 1 26 27
M  V30 22 1 26 28
M  V30 23 1 26 29
M  V30 24 1 26 30
M  V30 25 1 31 32
M  V30 26 1 31 33
M  V30 27 1 31 34
M  V30 28 1 31 35
M  V30 29 1 36 37
M  V30 30 1 36 38
M  V30 31 1 36 39
M  V30 32 1 36 40
M  V30 33 1 41 42
M  V30 34 1 41 43
M  V30 35 1 41 44
M  V30 36 1 41 45
M  V30 37 1 46 47
M  V30 38 1 47 48
M  V30 39 1 49 50
M  V30 40 1 50 51
M  V30 41 1 52 53
M  V30 42 1 53 54
M  V30 43 1 55 56
M  V30 44 1 56 57
M  V30 45 1 58 59
M  V30 46 1 59 60
M  V30 47 1 61 62
M  V30 48 1 62 63
M  V30 49 1 64 65
M  V30 50 1 65 66
M  V30 51 1 67 68
M  V30 52 1 68 69
M  V30 53 1 70 71
M  V30 54 1 71 72
M  V30 55 1 73 74
M  V30 56 1 74 75
M  V30 57 1 76 77
M  V30 58 1 77 78
M  V30 59 1 79 80
M  V30 60 1 80 81
M  V30 61 1 82 83
M  V30 62 1 83 84
M  V30 63 1 85 86
M  V30 64 1 86 87
M  V30 65 1 88 89
M  V30 66 1 89 90
M  V30 67 1 91 92
M  V30 68 1 92 93
M  V30 69 1 94 95
M  V30 70 1 95 96
M  V30 71 1 97 98
M  V30 72 1 98 99
M  V30 73 1 2 49
M  V30 74 1 3 67
M  V30 75 1 4 61
M  V30 76 1 5 94
M  V30 77 1 7 46
M  V30 78 1 8 82
M  V30 79 1 9 58
M  V30 80 1 10 79
M  V30 81 1 12 85
M  V30 82 1 13 70
M  V30 83 1 14 91
M  V30 84 1 15 76
M  V30 85 1 17 93
M  V30 86 1 18 55
M  V30 87 1 19 52
M  V30 88 1 20 88
M  V30 89 1 22 48
M  V30 90 1 23 72
M  V30 91 1 24 54
M  V30 92 1 25 73
M  V30 93 1 27 57
M  V30 94 1 28 97
M  V30 95 1 29 63
M  V30 96 1 30 90
M  V30 97 1 32 51
M  V30 98 1 33 99
M  V30 99 1 34 78
M  V30 100 1 35 87
M  V30 101 1 37 75
M  V30 102 1 38 64
M  V30 103 1 39 60
M  V30 104 1 40 96
M  V30 105 1 42 84
M  V30 106 1 43 69
M  V30 107 1 44 66
M  V30 108 1 45 81
M  V30 END BOND
M  V30 END CTAB
M  END

$$$$
