
     RDKit          3D

  0  0  0  0  0  0  0  0  0  0999 V3000
M  V30 BEGIN CTAB
M  V30 COUNTS 99 108 0 0 0
M  V30 BEGIN ATOM
M  V30 1 Pd 2.1983 -2.6357 -3.8486 0
M  V30 2 Pb 2.2633 -3.2918 -3.0967 0
M  V30 3 Pb 3.1921 -2.5913 -3.9238 0
M  V30 4 Pb 1.2034 -2.7083 -3.7918 0
M  V30 5 Pb 2.1412 -1.9028 -4.5267 0
M  V30 6 Pd -5.2805 -0.2545 -2.6657 0
M  V30 7 Pb -6.0270 0.3960 -2.5399 0
M  V30 8 Pb -4.6513 0.5263 -2.7247 0
M  V30 9 Pb -4.5399 -0.9029 -2.8362 0
M  V30 10 Pb -5.9050 -1.0255 -2.5220 0
M  V30 11 Pd -5.1833 3.1715 0.6818 0
M  V30 12 Pb -4.4427 3.0757 1.3468 0
M  V30 13 Pb -4.5412 3.3021 -0.0733 0
M  V30 14 Pb -5.8321 2.8435 1.3623 0
M  V30 15 Pb -5.9285 3.1831 0.0213 0
M  V30 16 Pd -1.1034 -4.4296 2.7734 0
M  V30 17 Pb -1.7004 -4.9477 2.1568 0
M  V30 18 Pb -0.5348 -3.8825 3.3931 0
M  V30 19 Pb -1.8864 -4.2830 3.3759 0
M  V30 20 Pb -0.3324 -4.5944 2.1558 0
M  V30 21 Pd 0.4624 3.5825 1.4030 0
M  V30 22 Pb 1.2990 3.9269 0.9891 0
M  V30 23 Pb 0.8731 3.7398 2.2983 0
M  V30 24 Pb -0.3798 3.2801 1.8483 0
M  V30 25 Pb 0.1021 3.3686 0.4919 0
M  V30 26 Pd -6.0772 -3.6142 1.5197 0
M  V30 27 Pb -5.6568 -3.7050 2.4215 0
M  V30 28 Pb -5.4850 -4.3507 1.1900 0
M  V30 29 Pb -6.6047 -2.8406 1.8676 0
M  V30 30 Pb -6.4787 -3.5025 0.6060 0
M  V30 31 Pd 7.6586 0.8441 -0.8084 0
M  V30 32 Pb 7.9759 0.1124 -0.2188 0
M  V30 33 Pb 7.3524 1.5429 -1.4584 0
M  V30 34 Pb 7.4309 1.4014 0.0156 0
M  V30 35 Pb 7.7336 0.2240 -1.5824 0
M  V30 36 Pd 2.9857 2.5950 -3.1796 0
M  V30 37 Pb 3.9633 2.6623 -3.3809 0
M  V30 38 Pb 2.0132 2.5761 -2.9323 0
M  V30 39 Pb 2.8054 1.9975 -3.9660 0
M  V30 40 Pb 3.1661 3.2029 -2.4130 0
M  V30 41 Pd 4.3462 0.8844 4.0867 0
M  V30 42 Pb 3.6439 0.3295 4.5349 0
M  V30 43 Pb 5.0414 1.3930 3.5355 0
M  V30 44 Pb 4.9335 0.0854 4.0833 0
M  V30 45 Pb 3.7773 1.7040 4.1808 0
M  V30 46 Ag 8.0988 -0.4145 0.2830 0
M  V30 47 Fe 7.0201 -0.8744 2.3197 0
M  V30 48 Ag 5.4322 -0.4526 4.0005 0
M  V30 49 Ag 3.9347 -2.5295 -3.9836 0
M  V30 50 Fe 5.8966 -1.4783 -3.1703 0
M  V30 51 Ag 7.6503 -0.2681 -2.1342 0
M  V30 52 Ag -0.1468 -3.4542 3.8765 0
M  V30 53 Fe 1.4852 -1.7946 4.3629 0
M  V30 54 Ag 3.1250 -0.1339 4.8184 0
M  V30 55 Ag 2.2858 -3.7343 -2.4913 0
M  V30 56 Fe 1.2868 -4.2714 -0.4034 0
M  V30 57 Ag 0.2216 -4.7378 1.6687 0
M  V30 58 Ag 0.4632 -2.8100 -3.7363 0
M  V30 59 Fe -1.7547 -2.0550 -3.3533 0
M  V30 60 Ag -4.0101 -1.4101 -2.9879 0
M  V30 61 Ag -6.3022 2.4456 1.7822 0
M  V30 62 Fe -6.7796 0.1467 2.1099 0
M  V30 63 Ag -6.9230 -2.2200 2.1395 0
M  V30 64 Ba -2.1696 -5.3195 1.7008 0
M  V30 65 Ga -3.5837 -5.1240 1.3194 0
M  V30 66 Ba -4.9995 -4.8810 0.9729 0
M  V30 67 Ba -3.9181 2.9512 1.8684 0
M  V30 68 Ga -2.4520 3.0304 2.0071 0
M  V30 69 Ba -0.9946 3.0803 2.2278 0
M  V30 70 Ba 2.1359 -1.3177 -4.9965 0
M  V30 71 Ga 2.3884 0.1239 -4.7886 0
M  V30 72 Ba 2.6449 1.5617 -4.5599 0
M  V30 73 Ba -2.4927 -4.1852 3.8043 0
M  V30 74 Ga -3.9136 -3.9721 3.4780 0
M  V30 75 Ba -5.3185 -3.7614 3.0875 0
M  V30 76 Ba -6.3632 -1.6066 -2.3840 0
M  V30 77 Ga -6.5685 -2.5117 -1.2314 0
M  V30 78 Ba -6.7776 -3.4193 -0.0814 0
M  V30 79 Ba 7.1576 2.0023 -2.0221 0
M  V30 80 Ga 5.9199 2.3847 -2.7337 0
M  V30 81 Ba 4.6994 2.7866 -3.4639 0
M  V30 82 Ba -4.2063 1.1359 -2.7141 0
M  V30 83 Ga -4.1026 2.2443 -1.7392 0
M  V30 84 Ba -4.1077 3.2831 -0.6858 0
M  V30 85 Ba 1.2192 3.8307 2.9547 0
M  V30 86 Ga 2.2898 3.0723 3.6288 0
M  V30 87 Ba 3.3608 2.3176 4.3064 0
M  V30 88 Ba -6.5496 0.9222 -2.4430 0
M  V30 89 Ga -6.5881 2.0437 -1.4944 0
M  V30 90 Ba -6.4717 3.1027 -0.4829 0
M  V30 91 Ba 7.2503 1.8063 0.6462 0
M  V30 92 Ga 6.3795 1.7333 1.8674 0
M  V30 93 Ba 5.5626 1.7895 3.1260 0
M  V30 94 Ba -0.1312 3.1858 -0.2005 0
M  V30 95 Ga 0.5685 2.8856 -1.4696 0
M  V30 96 Ba 1.2876 2.5888 -2.7286 0
M  V30 97 Ba 1.9252 4.1951 0.6876 0
M  V30 98 Ga 2.6324 3.9397 -0.5727 0
M  V30 99 Ba 3.3124 3.6589 -1.8424 0
M  V30 END ATOM
M  V30 BEGIN BOND
M  V30 1 1 1 2
M  V30 2 1 1 3
M  V30 3 1 1 4
M  V30 4 1 1 5
M  V30 5 1 6 7
M  V30 6 1 6 8
M  V30 7 1 6 9
M  V30 8 1 6 10
M  V30 9 1 11 12
M  V30 10 1 11 13
M  V30 11 1 11 14
M  V30 12 1 11 15
M  V30 13 1 16 17
M  V30 14 1 16 18
M  V30 15 1 16 19
M  V30 16 1 16 20
M  V30 17 1 21 22
M  V30 18 1 21 23
M  V30 19 1 21 24
M  V30 20 1 21 25
M  V30 21 1 26 27
M  V30 22 1 26 28
M  V30 23 1 26 29
M  V30 24 1 26 30
M  V30 25 1 31 32
M  V30 26 1 31 33
M  V30 27 1 31 34
M  V30 28 1 31 35
M  V30 29 1 36 37
M  V30 30 1 36 38
M  V30 31 1 36 39
M  V30 32 1 36 40
M  V30 33 1 41 42
M  V30 34 1 41 43
M  V30 35 1 41 44
M  V30 36 1 41 45
M  V30 37 1 46 47
M  V30 38 1 47 48
M  V30 39 1 49 50
M  V30 40 1 50 51
M  V30 41 1 52 53
M  V30 42 1 53 54
M  V30 43 1 55 56
M  V30 44 1 56 57
M  V30 45 1 58 59
M  V30 46 1 59 60
M  V30 47 1 61 62
M  V30 48 1 62 63
M  V30 49 1 64 65
M  V30 50 1 65 66
M  V30 51 1 67 68
M  V30 52 1 68 69
M  V30 53 1 70 71
M  V30 54 1 71 72
M  V30 55 1 73 74
M  V30 56 1 74 75
M  V30 57 1 76 77
M  V30 58 1 77 78
M  V30 59 1 79 80
M  V30 60 1 80 81
M  V30 61 1 82 83
M  V30 62 1 83 84
M  V30 63 1 85 86
M  V30 64 1 86 87
M  V30 65 1 88 89
M  V30 66 1 89 90
M  V30 67 1 91 92
M  V30 68 1 92 93
M  V30 69 1 94 95
M  V30 70 1 95 96
M  V30 71 1 97 98
M  V30 72 1 98 99
M  V30 73 1 2 55
M  V30 74 1 3 49
M  V30 75 1 4 58
M  V30 76 1 5 70
M  V30 77 1 7 88
M  V30 78 1 8 82
M  V30 79 1 9 60
M  V30 80 1 10 76
M  V30 81 1 12 67
M  V30 82 1 13 84
M  V30 83 1 14 61
M  V30 84 1 15 90
M  V30 85 1 17 64
M  V30 86 1 18 52
M  V30 87 1 19 73
M  V30 88 1 20 57
M  V30 89 1 22 97
M  V30 90 1 23 85
M  V30 91 1 24 69
M  V30 92 1 25 94
M  V30 93 1 27 75
M  V30 94 1 28 66
M  V30 95 1 29 63
M  V30 96 1 30 78
M  V30 97 1 32 46
M  V30 98 1 33 79
M  V30 99 1 34 91
M  V30 100 1 35 51
M  V30 101 1 37 81
M  V30 102 1 38 96
M  V30 103 1 39 72
M  V30 104 1 40 99
M  V30 105 1 42 54
M  V30 106 1 43 93
M  V30 107 1 44 48
M  V30 108 1 45 87
M  V30 END BOND
M  V30 END CTAB
M  END

$$$$
