
     RDKit          3D

  0  0  0  0  0  0  0  0  0  0999 V3000
M  V30 BEGIN CTAB
M  V30 COUNTS 99 108 0 0 0
M  V30 BEGIN ATOM
M  V30 1 Pd -3.4427 -2.7137 0.8478 0
M  V30 2 Pb -4.3997 -2.4243 0.8926 0
M  V30 3 Pb -2.4968 -3.0262 0.7613 0
M  V30 4 Pb -3.6546 -3.3367 0.0960 0
M  V30 5 Pb -3.2311 -2.1024 1.6149 0
M  V30 6 Pd 5.8874 -0.9525 4.1403 0
M  V30 7 Pb 5.9939 -0.1032 3.6141 0
M  V30 8 Pb 6.1132 -1.4870 3.3209 0
M  V30 9 Pb 5.6084 -0.4740 4.9775 0
M  V30 10 Pb 5.8968 -1.8026 4.6641 0
M  V30 11 Pd -2.3809 6.2330 -2.9788 0
M  V30 12 Pb -3.1049 5.8876 -3.5705 0
M  V30 13 Pb -1.6256 6.4835 -2.3760 0
M  V30 14 Pb -1.7572 6.2543 -3.7558 0
M  V30 15 Pb -2.9904 6.0517 -2.2059 0
M  V30 16 Pd 0.9773 0.6205 -5.5789 0
M  V30 17 Pb 0.9620 1.5784 -5.8601 0
M  V30 18 Pb 0.1225 0.4620 -6.0735 0
M  V30 19 Pb 1.8136 0.8113 -5.0604 0
M  V30 20 Pb 0.9499 -0.3293 -5.2621 0
M  V30 21 Pd 3.9532 3.6723 0.8166 0
M  V30 22 Pb 4.6785 3.1017 1.2114 0
M  V30 23 Pb 3.2801 4.3181 0.4531 0
M  V30 24 Pb 4.1525 3.3093 -0.0959 0
M  V30 25 Pb 3.6867 3.9681 1.7299 0
M  V30 26 Pd -3.1857 -2.5421 -4.6148 0
M  V30 27 Pb -3.0162 -1.8644 -5.3301 0
M  V30 28 Pb -4.1763 -2.4067 -4.6788 0
M  V30 29 Pb -3.3652 -3.2316 -3.9138 0
M  V30 30 Pb -2.1951 -2.6788 -4.5360 0
M  V30 31 Pd -6.6658 0.6149 -2.0617 0
M  V30 32 Pb -6.7765 0.0028 -1.2771 0
M  V30 33 Pb -6.8053 -0.1389 -2.7043 0
M  V30 34 Pb -6.4660 1.3926 -1.4620 0
M  V30 35 Pb -6.5475 1.2440 -2.8266 0
M  V30 36 Pd 1.1152 0.2171 6.4528 0
M  V30 37 Pb 1.2485 1.1844 6.2557 0
M  V30 38 Pb 1.0056 -0.7656 6.5917 0
M  V30 39 Pb 2.0632 0.2123 6.7813 0
M  V30 40 Pb 0.2060 0.2283 6.0335 0
M  V30 41 Pd 3.6965 -5.1575 2.9703 0
M  V30 42 Pb 4.4287 -4.8339 2.3709 0
M  V30 43 Pb 3.0261 -5.0584 2.2383 0
M  V30 44 Pb 2.9710 -5.3015 3.6366 0
M  V30 45 Pb 4.3383 -5.1560 3.7297 0
M  V30 46 Ag 3.4218 4.1272 2.4089 0
M  V30 47 Fe 2.4084 3.1478 4.3139 0
M  V30 48 Ag 1.4245 1.8820 6.0588 0
M  V30 49 Ag 2.4287 1.0062 -4.6734 0
M  V30 50 Fe 3.3784 1.9940 -2.7301 0
M  V30 51 Ag 4.2752 2.9906 -0.7663 0
M  V30 52 Ag -3.4670 5.7980 -1.6835 0
M  V30 53 Fe -4.9150 3.9650 -1.2419 0
M  V30 54 Ag -6.2687 2.0164 -1.0907 0
M  V30 55 Ag -3.6445 5.5428 -3.9539 0
M  V30 56 Fe -5.1082 3.6837 -3.8098 0
M  V30 57 Ag -6.4220 1.7657 -3.3465 0
M  V30 58 Ag -1.2836 6.1352 -4.3199 0
M  V30 59 Fe -0.1008 4.3322 -5.3056 0
M  V30 60 Ag 0.9133 2.3091 -6.0137 0
M  V30 61 Ag -3.1153 -1.6395 2.1981 0
M  V30 62 Fe -1.7814 -0.7173 3.9372 0
M  V30 63 Ag -0.4564 0.2125 5.6791 0
M  V30 64 Ag 0.9180 -1.5086 6.6088 0
M  V30 65 Fe 1.5672 -3.5149 5.5255 0
M  V30 66 Ag 2.4751 -5.2503 4.1905 0
M  V30 67 Ag -1.8182 -3.3134 0.6199 0
M  V30 68 Fe 0.3411 -4.1176 1.1919 0
M  V30 69 Ag 2.5108 -4.9289 1.7121 0
M  V30 70 Ag -1.0303 6.6199 -1.9435 0
M  V30 71 Fe 0.8807 5.7219 -0.8559 0
M  V30 72 Ag 2.8009 4.8569 0.2422 0
M  V30 73 Ba 6.1803 0.5017 3.2031 0
M  V30 74 Ga 5.6312 1.5936 2.3687 0
M  V30 75 Ba 5.2708 2.7430 1.5088 0
M  V30 76 Ba -5.1210 -2.2170 0.9161 0
M  V30 77 Ga -5.9858 -1.3289 0.1140 0
M  V30 78 Ba -6.8618 -0.4442 -0.6794 0
M  V30 79 Ba -0.5303 0.3497 -6.4256 0
M  V30 80 Ga -1.7042 -0.5031 -6.1602 0
M  V30 81 Ba -2.8641 -1.3667 -5.8699 0
M  V30 82 Ba 5.9464 -2.4550 5.0279 0
M  V30 83 Ga 5.4037 -3.7876 4.7309 0
M  V30 84 Ba 4.7909 -5.0547 4.3113 0
M  V30 85 Ba 6.2507 -1.9312 2.7271 0
M  V30 86 Ga 5.6536 -3.2172 2.3052 0
M  V30 87 Ba 4.9791 -4.4949 1.9891 0
M  V30 88 Ba 0.8865 -1.0388 -5.0222 0
M  V30 89 Ga -0.2734 -1.9143 -4.7501 0
M  V30 90 Ba -1.4492 -2.7706 -4.4849 0
M  V30 91 Ba 5.3862 -0.1884 5.6393 0
M  V30 92 Ga 4.0850 0.0428 6.3074 0
M  V30 93 Ba 2.7872 0.2767 6.9812 0
M  V30 94 Ba -3.7761 -3.8215 -0.4621 0
M  V30 95 Ga -3.6574 -3.7786 -1.9308 0
M  V30 96 Ba -3.5422 -3.7479 -3.4001 0
M  V30 97 Ba -4.9245 -2.3342 -4.6933 0
M  V30 98 Ga -5.9084 -1.5112 -3.9615 0
M  V30 99 Ba -6.8774 -0.6790 -3.2204 0
M  V30 END ATOM
M  V30 BEGIN BOND
M  V30 1 1 1 2
M  V30 2 1 1 3
M  V30 3 1 1 4
M  V30 4 1 1 5
M  V30 5 1 6 7
M  V30 6 1 6 8
M  V30 7 1 6 9
M  V30 8 1 6 10
M  V30 9 1 11 12
M  V30 10 1 11 13
M  V30 11 1 11 14
M  V30 12 1 11 15
M  V30 13 1 16 17
M  V30 14 1 16 18
M  V30 15 1 16 19
M  V30 16 1 16 20
M  V30 17 1 21 22
M  V30 18 1 21 23
M  V30 19 1 21 24
M  V30 20 1 21 25
M  V30 21 1 26 27
M  V30 22 1 26 28
M  V30 23 1 26 29
M  V30 24 1 26 30
M  V30 25 1 31 32
M  V30 26 1 31 33
M  V30 27 1 31 34
M  V30 28 1 31 35
M  V30 29 1 36 37
M  V30 30 1 36 38
M  V30 31 1 36 39
M  V30 32 1 36 40
M  V30 33 1 41 42
M  V30 34 1 41 43
M  V30 35 1 41 44
M  V30 36 1 41 45
M  V30 37 1 46 47
M  V30 38 1 47 48
M  V30 39 1 49 50
M  V30 40 1 50 51
M  V30 41 1 52 53
M  V30 42 1 53 54
M  V30 43 1 55 56
M  V30 44 1 56 57
M  V30 45 1 58 59
M  V30 46 1 59 60
M  V30 47 1 61 62
M  V30 48 1 62 63
M  V30 49 1 64 65
M  V30 50 1 65 66
M  V30 51 1 67 68
M  V30 52 1 68 69
M  V30 53 1 70 71
M  V30 54 1 71 72
M  V30 55 1 73 74
M  V30 56 1 74 75
M  V30 57 1 76 77
M  V30 58 1 77 78
M  V30 59 1 79 80
M  V30 60 1 80 81
M  V30 61 1 82 83
M  V30 62 1 83 84
M  V30 63 1 85 86
M  V30 64 1 86 87
M  V30 65 1 88 89
M  V30 66 1 89 90
M  V30 67 1 91 92
M  V30 68 1 92 93
M  V30 69 1 94 95
M  V30 70 1 95 96
M  V30 71 1 97 98
M  V30 72 1 98 99
M  V30 73 1 2 76
M  V30 74 1 3 67
M  V30 75 1 4 94
M  V30 76 1 5 61
M  V30 77 1 7 73
M  V30 78 1 8 85
M  V30 79 1 9 91
M  V30 80 1 10 82
M  V30 81 1 12 55
M  V30 82 1 13 70
M  V30 83 1 14 58
M  V30 84 1 15 52
M  V30 85 1 17 60
M  V30 86 1 18 79
M  V30 87 1 19 49
M  V30 88 1 20 88
M  V30 89 1 22 75
M  V30 90 1 23 72
M  V30 91 1 24 51
M  V30 92 1 25 46
M  V30 93 1 27 81
M  V30 94 1 28 97
M  V30 95 1 29 96
M  V30 96 1 30 90
M  V30 97 1 32 78
M  V30 98 1 33 99
M  V30 99 1 34 54
M  V30 100 1 35 57
M  V30 101 1 37 48
M  V30 102 1 38 64
M  V30 103 1 39 93
M  V30 104 1 40 63
M  V30 105 1 42 87
M  V30 106 1 43 69
M  V30 107 1 44 66
M  V30 108 1 45 84
M  V30 END BOND
M  V30 END CTAB
M  END

$$$$
