
     RDKit          3D

  0  0  0  0  0  0  0  0  0  0999 V3000
M  V30 BEGIN CTAB
M  V30 COUNTS 99 108 0 0 0
M  V30 BEGIN ATOM
M  V30 1 Pd 0.9183 4.0845 1.1381 0
M  V30 2 Pb 0.0164 3.7334 0.8845 0
M  V30 3 Pb 0.9314 4.5950 0.2749 0
M  V30 4 Pb 0.8692 3.6119 2.0182 0
M  V30 5 Pb 1.8282 4.4137 1.3963 0
M  V30 6 Pd 3.7119 1.4478 -7.0153 0
M  V30 7 Pb 3.0342 1.1655 -6.3354 0
M  V30 8 Pb 4.3936 1.7521 -7.6764 0
M  V30 9 Pb 4.4139 0.9444 -6.5164 0
M  V30 10 Pb 3.0732 2.1455 -7.3738 0
M  V30 11 Pd -5.9854 -5.1124 -0.3468 0
M  V30 12 Pb -6.1995 -4.1461 -0.5662 0
M  V30 13 Pb -5.1879 -5.0966 -0.9516 0
M  V30 14 Pb -5.6935 -5.9903 0.0233 0
M  V30 15 Pb -6.7552 -5.1276 0.2825 0
M  V30 16 Pd -1.4586 -6.0222 5.1046 0
M  V30 17 Pb -2.0674 -6.6023 4.5643 0
M  V30 18 Pb -0.8444 -5.4237 5.6129 0
M  V30 19 Pb -0.7079 -6.2826 4.5008 0
M  V30 20 Pb -2.2250 -5.6495 5.6325 0
M  V30 21 Pd 1.3895 -3.1576 -1.1097 0
M  V30 22 Pb 1.2750 -2.3867 -1.7378 0
M  V30 23 Pb 0.6132 -3.6123 -1.5479 0
M  V30 24 Pb 1.4926 -3.9268 -0.4788 0
M  V30 25 Pb 2.1288 -2.6814 -0.6321 0
M  V30 26 Pd -2.1888 -1.0462 6.1865 0
M  V30 27 Pb -1.4127 -1.6383 6.3958 0
M  V30 28 Pb -2.9561 -0.4275 6.0007 0
M  V30 29 Pb -1.5526 -0.3073 5.9663 0
M  V30 30 Pb -2.7991 -1.8164 6.3930 0
M  V30 31 Pd -5.8468 0.0763 2.1997 0
M  V30 32 Pb -5.1675 0.6287 1.7149 0
M  V30 33 Pb -5.6014 0.4965 3.0737 0
M  V30 34 Pb -6.5547 -0.4464 2.6627 0
M  V30 35 Pb -6.0719 -0.4090 1.3342 0
M  V30 36 Pd 5.9696 2.9658 -0.3769 0
M  V30 37 Pb 5.7024 2.1116 0.0668 0
M  V30 38 Pb 6.1879 3.8237 -0.8434 0
M  V30 39 Pb 6.2778 2.4115 -1.1519 0
M  V30 40 Pb 5.5942 3.5133 0.3710 0
M  V30 41 Pd 3.4366 6.6878 -5.9160 0
M  V30 42 Pb 4.1281 6.7319 -6.6331 0
M  V30 43 Pb 2.7557 6.6254 -5.1844 0
M  V30 44 Pb 4.0920 7.0420 -5.2537 0
M  V30 45 Pb 2.8625 6.1214 -6.5275 0
M  V30 46 Ag 2.5320 0.9660 -5.8145 0
M  V30 47 Fe 1.8652 -0.4351 -4.0152 0
M  V30 48 Ag 1.1646 -1.8158 -2.2131 0
M  V30 49 Ag -0.6536 3.4734 0.6683 0
M  V30 50 Fe -2.6543 2.2492 1.0458 0
M  V30 51 Ag -4.6873 1.0515 1.3220 0
M  V30 52 Ag 2.6619 -2.3224 -0.2440 0
M  V30 53 Fe 4.0855 -0.4482 0.0747 0
M  V30 54 Ag 5.4880 1.4494 0.3439 0
M  V30 55 Ag -0.1732 -6.4019 3.9915 0
M  V30 56 Fe 0.7626 -5.5228 1.9949 0
M  V30 57 Ag 1.5583 -4.4918 0.0102 0
M  V30 58 Ag -7.2623 -5.0024 0.8067 0
M  V30 59 Fe -7.5788 -3.1058 2.1645 0
M  V30 60 Ag -7.0651 -0.9285 2.8979 0
M  V30 61 Ag 4.8582 2.1464 -8.0995 0
M  V30 62 Fe 5.1698 4.4794 -8.0660 0
M  V30 63 Ag 4.6198 6.5852 -7.1690 0
M  V30 64 Ag -5.4264 -6.5661 0.4158 0
M  V30 65 Fe -3.9846 -6.9556 2.2588 0
M  V30 66 Ag -2.5013 -7.0104 4.1096 0
M  V30 67 Ag 4.9504 0.7080 -6.0517 0
M  V30 68 Fe 5.8056 1.2238 -3.8971 0
M  V30 69 Ag 6.4382 1.9563 -1.7281 0
M  V30 70 Ag 0.8344 3.2891 2.6944 0
M  V30 71 Fe -0.1252 1.7533 4.2308 0
M  V30 72 Ag -1.0581 0.2298 5.7956 0
M  V30 73 Ag 6.2858 4.4866 -1.1817 0
M  V30 74 Fe 5.5491 5.9395 -2.9085 0
M  V30 75 Ag 4.6043 7.1470 -4.7203 0
M  V30 76 Ag 0.8734 4.9872 -0.3652 0
M  V30 77 Fe 1.6101 5.7592 -2.4898 0
M  V30 78 Ag 2.2581 6.5862 -4.6226 0
M  V30 79 Ag -4.5742 -5.0937 -1.3844 0
M  V30 80 Fe -2.2828 -4.5256 -1.6534 0
M  V30 81 Ag 0.0083 -3.9303 -1.8586 0
M  V30 82 Ba -0.4058 -4.9429 5.9793 0
M  V30 83 Ga -0.5862 -3.5158 6.2880 0
M  V30 84 Ba -0.8399 -2.0919 6.5578 0
M  V30 85 Ba 2.6264 2.7225 -7.5968 0
M  V30 86 Ga 2.5506 4.1809 -7.2838 0
M  V30 87 Ba 2.4721 5.6396 -6.9728 0
M  V30 88 Ba -6.3486 -3.4081 -0.6980 0
M  V30 89 Ga -6.2800 -2.1058 0.0333 0
M  V30 90 Ba -6.2497 -0.7549 0.6729 0
M  V30 91 Ba -2.7843 -5.3021 5.9978 0
M  V30 92 Ga -3.0282 -3.8712 6.2896 0
M  V30 93 Ba -3.2150 -2.4258 6.5503 0
M  V30 94 Ba 2.5100 4.6304 1.6269 0
M  V30 95 Ga 3.9012 4.2946 1.2645 0
M  V30 96 Ba 5.2896 3.9542 0.8959 0
M  V30 97 Ba -3.5027 0.0758 5.8782 0
M  V30 98 Ga -4.4588 0.4142 4.8039 0
M  V30 99 Ba -5.4265 0.7761 3.7477 0
M  V30 END ATOM
M  V30 BEGIN BOND
M  V30 1 1 1 2
M  V30 2 1 1 3
M  V30 3 1 1 4
M  V30 4 1 1 5
M  V30 5 1 6 7
M  V30 6 1 6 8
M  V30 7 1 6 9
M  V30 8 1 6 10
M  V30 9 1 11 12
M  V30 10 1 11 13
M  V30 11 1 11 14
M  V30 12 1 11 15
M  V30 13 1 16 17
M  V30 14 1 16 18
M  V30 15 1 16 19
M  V30 16 1 16 20
M  V30 17 1 21 22
M  V30 18 1 21 23
M  V30 19 1 21 24
M  V30 20 1 21 25
M  V30 21 1 26 27
M  V30 22 1 26 28
M  V30 23 1 26 29
M  V30 24 1 26 30
M  V30 25 1 31 32
M  V30 26 1 31 33
M  V30 27 1 31 34
M  V30 28 1 31 35
M  V30 29 1 36 37
M  V30 30 1 36 38
M  V30 31 1 36 39
M  V30 32 1 36 40
M  V30 33 1 41 42
M  V30 34 1 41 43
M  V30 35 1 41 44
M  V30 36 1 41 45
M  V30 37 1 46 47
M  V30 38 1 47 48
M  V30 39 1 49 50
M  V30 40 1 50 51
M  V30 41 1 52 53
M  V30 42 1 53 54
M  V30 43 1 55 56
M  V30 44 1 56 57
M  V30 45 1 58 59
M  V30 46 1 59 60
M  V30 47 1 61 62
M  V30 48 1 62 63
M  V30 49 1 64 65
M  V30 50 1 65 66
M  V30 51 1 67 68
M  V30 52 1 68 69
M  V30 53 1 70 71
M  V30 54 1 71 72
M  V30 55 1 73 74
M  V30 56 1 74 75
M  V30 57 1 76 77
M  V30 58 1 77 78
M  V30 59 1 79 80
M  V30 60 1 80 81
M  V30 61 1 82 83
M  V30 62 1 83 84
M  V30 63 1 85 86
M  V30 64 1 86 87
M  V30 65 1 88 89
M  V30 66 1 89 90
M  V30 67 1 91 92
M  V30 68 1 92 93
M  V30 69 1 94 95
M  V30 70 1 95 96
M  V30 71 1 97 98
M  V30 72 1 98 99
M  V30 73 1 2 49
M  V30 74 1 3 76
M  V30 75 1 4 70
M  V30 76 1 5 94
M  V30 77 1 7 46
M  V30 78 1 8 61
M  V30 79 1 9 67
M  V30 80 1 10 85
M  V30 81 1 12 88
M  V30 82 1 13 79
M  V30 83 1 14 64
M  V30 84 1 15 58
M  V30 85 1 17 66
M  V30 86 1 18 82
M  V30 87 1 19 55
M  V30 88 1 20 91
M  V30 89 1 22 48
M  V30 90 1 23 81
M  V30 91 1 24 57
M  V30 92 1 25 52
M  V30 93 1 27 84
M  V30 94 1 28 97
M  V30 95 1 29 72
M  V30 96 1 30 93
M  V30 97 1 32 51
M  V30 98 1 33 99
M  V30 99 1 34 60
M  V30 100 1 35 90
M  V30 101 1 37 54
M  V30 102 1 38 73
M  V30 103 1 39 69
M  V30 104 1 40 96
M  V30 105 1 42 63
M  V30 106 1 43 78
M  V30 107 1 44 75
M  V30 108 1 45 87
M  V30 END BOND
M  V30 END CTAB
M  END

$$$$
