
     RDKit          3D

  0  0  0  0  0  0  0  0  0  0999 V3000
M  V30 BEGIN CTAB
M  V30 COUNTS 99 108 0 0 0
M  V30 BEGIN ATOM
M  V30 1 Pd -0.7519 4.2805 2.2048 0
M  V30 2 Pb -0.6387 4.1743 3.1879 0
M  V30 3 Pb -0.8673 4.3663 1.2130 0
M  V30 4 Pb -1.6861 4.6092 2.3558 0
M  V30 5 Pb 0.1535 3.8637 2.1175 0
M  V30 6 Pd 3.6313 1.6224 -7.5694 0
M  V30 7 Pb 3.3112 0.7238 -7.2685 0
M  V30 8 Pb 3.9585 2.5379 -7.7903 0
M  V30 9 Pb 4.5353 1.3688 -7.2353 0
M  V30 10 Pb 2.7049 1.9302 -7.7979 0
M  V30 11 Pd -0.7511 -4.8795 3.0332 0
M  V30 12 Pb -1.5584 -4.7074 3.6052 0
M  V30 13 Pb 0.0754 -5.0599 2.4884 0
M  V30 14 Pb -1.2894 -5.5261 2.4880 0
M  V30 15 Pb -0.2211 -4.2732 3.6247 0
M  V30 16 Pd -4.7448 -4.3025 -0.2609 0
M  V30 17 Pb -4.3953 -5.1747 0.0755 0
M  V30 18 Pb -5.2593 -4.1507 0.5778 0
M  V30 19 Pb -4.1588 -4.4152 -1.0565 0
M  V30 20 Pb -4.9955 -3.3715 -0.5322 0
M  V30 21 Pd 2.5708 -3.5662 -1.6786 0
M  V30 22 Pb 2.6728 -3.1322 -2.5775 0
M  V30 23 Pb 2.4517 -4.0778 -0.8201 0
M  V30 24 Pb 1.6808 -3.8707 -2.0087 0
M  V30 25 Pb 3.4718 -3.2636 -1.3547 0
M  V30 26 Pd -5.3526 1.7096 3.5908 0
M  V30 27 Pb -5.6750 0.7711 3.6885 0
M  V30 28 Pb -5.2779 1.7403 4.5875 0
M  V30 29 Pb -5.0431 2.6579 3.4684 0
M  V30 30 Pb -5.4190 1.5756 2.6009 0
M  V30 31 Pd -2.1396 -1.1017 6.5807 0
M  V30 32 Pb -1.6625 -0.2534 6.7852 0
M  V30 33 Pb -2.9842 -0.6086 6.8019 0
M  V30 34 Pb -1.2741 -1.5310 6.3237 0
M  V30 35 Pb -2.6217 -1.9329 6.2987 0
M  V30 36 Pd 5.7171 1.0350 -0.8187 0
M  V30 37 Pb 5.7664 0.0499 -0.6433 0
M  V30 38 Pb 5.6246 2.0106 -1.0189 0
M  V30 39 Pb 6.1998 0.8979 -1.6811 0
M  V30 40 Pb 5.1875 1.1994 0.0103 0
M  V30 41 Pd 1.7581 5.3000 -5.1820 0
M  V30 42 Pb 2.4863 5.4375 -5.8513 0
M  V30 43 Pb 1.0283 5.1520 -4.5124 0
M  V30 44 Pb 2.3883 5.5412 -4.4468 0
M  V30 45 Pb 1.2011 4.9060 -5.9145 0
M  V30 46 Ag 3.1205 0.0499 -6.9987 0
M  V30 47 Fe 2.9074 -1.3781 -5.1094 0
M  V30 48 Ag 2.6616 -2.8913 -3.2918 0
M  V30 49 Ag -0.5453 4.0219 3.9109 0
M  V30 50 Fe -0.8689 2.3247 5.5292 0
M  V30 51 Ag -1.3518 0.4194 6.8480 0
M  V30 52 Ag -3.6472 -4.5060 -1.5896 0
M  V30 53 Fe -1.3250 -4.3132 -2.0208 0
M  V30 54 Ag 1.0170 -4.0678 -2.2892 0
M  V30 55 Ag -5.5946 -3.9361 1.2077 0
M  V30 56 Fe -5.8488 -2.0171 2.5743 0
M  V30 57 Ag -5.9068 0.0615 3.7109 0
M  V30 58 Ag -5.1458 -2.6430 -0.6414 0
M  V30 59 Fe -5.3421 -0.5623 0.4911 0
M  V30 60 Ag -5.4745 1.3599 1.8832 0
M  V30 61 Ag 5.1664 1.1910 -6.8792 0
M  V30 62 Fe 6.0047 0.9539 -4.6746 0
M  V30 63 Ag 6.4996 0.8134 -2.3605 0
M  V30 64 Ag 0.8090 3.4991 2.1593 0
M  V30 65 Fe 2.7772 2.4472 1.3476 0
M  V30 66 Ag 4.7648 1.3854 0.5983 0
M  V30 67 Ag 5.5002 2.7341 -1.1733 0
M  V30 68 Fe 4.2570 4.2785 -2.4791 0
M  V30 69 Ag 2.8988 5.6051 -3.9038 0
M  V30 70 Ag -0.9828 4.4275 0.4724 0
M  V30 71 Fe -0.2232 4.7361 -1.7587 0
M  V30 72 Ag 0.4827 5.0404 -4.0079 0
M  V30 73 Ba 4.1466 -3.0779 -1.0743 0
M  V30 74 Ga 4.9552 -1.8660 -0.8199 0
M  V30 75 Ba 5.8120 -0.6934 -0.5404 0
M  V30 76 Ba 0.1639 -3.8386 4.0981 0
M  V30 77 Ga -0.2197 -2.8314 5.1041 0
M  V30 78 Ba -0.6204 -1.8269 6.1060 0
M  V30 79 Ba 2.0247 2.2312 -7.9143 0
M  V30 80 Ga 1.3781 3.3759 -7.2370 0
M  V30 81 Ba 0.8628 4.5315 -6.4715 0
M  V30 82 Ba 4.1608 3.2499 -7.8876 0
M  V30 83 Ga 3.6446 4.4275 -7.1742 0
M  V30 84 Ba 3.0215 5.4906 -6.3716 0
M  V30 85 Ba -2.1583 -4.5900 4.0471 0
M  V30 86 Ga -2.5609 -3.5766 5.0467 0
M  V30 87 Ba -2.9539 -2.5573 6.0442 0
M  V30 88 Ba -1.7169 -6.0227 2.1177 0
M  V30 89 Ga -2.8885 -5.9349 1.2243 0
M  V30 90 Ba -4.0564 -5.7899 0.3336 0
M  V30 91 Ba -2.3912 4.8197 2.5116 0
M  V30 92 Ga -3.6106 4.0911 2.9273 0
M  V30 93 Ba -4.8358 3.3733 3.3444 0
M  V30 94 Ba -5.2414 1.6489 5.3320 0
M  V30 95 Ga -4.4135 0.7568 6.1714 0
M  V30 96 Ba -3.5617 -0.1537 6.9661 0
M  V30 97 Ba 0.7240 -5.2134 2.1318 0
M  V30 98 Ga 1.5111 -4.8100 0.9422 0
M  V30 99 Ba 2.4055 -4.5102 -0.2014 0
M  V30 END ATOM
M  V30 BEGIN BOND
M  V30 1 1 1 2
M  V30 2 1 1 3
M  V30 3 1 1 4
M  V30 4 1 1 5
M  V30 5 1 6 7
M  V30 6 1 6 8
M  V30 7 1 6 9
M  V30 8 1 6 10
M  V30 9 1 11 12
M  V30 10 1 11 13
M  V30 11 1 11 14
M  V30 12 1 11 15
M  V30 13 1 16 17
M  V30 14 1 16 18
M  V30 15 1 16 19
M  V30 16 1 16 20
M  V30 17 1 21 22
M  V30 18 1 21 23
M  V30 19 1 21 24
M  V30 20 1 21 25
M  V30 21 1 26 27
M  V30 22 1 26 28
M  V30 23 1 26 29
M  V30 24 1 26 30
M  V30 25 1 31 32
M  V30 26 1 31 33
M  V30 27 1 31 34
M  V30 28 1 31 35
M  V30 29 1 36 37
M  V30 30 1 36 38
M  V30 31 1 36 39
M  V30 32 1 36 40
M  V30 33 1 41 42
M  V30 34 1 41 43
M  V30 35 1 41 44
M  V30 36 1 41 45
M  V30 37 1 46 47
M  V30 38 1 47 48
M  V30 39 1 49 50
M  V30 40 1 50 51
M  V30 41 1 52 53
M  V30 42 1 53 54
M  V30 43 1 55 56
M  V30 44 1 56 57
M  V30 45 1 58 59
M  V30 46 1 59 60
M  V30 47 1 61 62
M  V30 48 1 62 63
M  V30 49 1 64 65
M  V30 50 1 65 66
M  V30 51 1 67 68
M  V30 52 1 68 69
M  V30 53 1 70 71
M  V30 54 1 71 72
M  V30 55 1 73 74
M  V30 56 1 74 75
M  V30 57 1 76 77
M  V30 58 1 77 78
M  V30 59 1 79 80
M  V30 60 1 80 81
M  V30 61 1 82 83
M  V30 62 1 83 84
M  V30 63 1 85 86
M  V30 64 1 86 87
M  V30 65 1 88 89
M  V30 66 1 89 90
M  V30 67 1 91 92
M  V30 68 1 92 93
M  V30 69 1 94 95
M  V30 70 1 95 96
M  V30 71 1 97 98
M  V30 72 1 98 99
M  V30 73 1 2 49
M  V30 74 1 3 70
M  V30 75 1 4 91
M  V30 76 1 5 64
M  V30 77 1 7 46
M  V30 78 1 8 82
M  V30 79 1 9 61
M  V30 80 1 10 79
M  V30 81 1 12 85
M  V30 82 1 13 97
M  V30 83 1 14 88
M  V30 84 1 15 76
M  V30 85 1 17 90
M  V30 86 1 18 55
M  V30 87 1 19 52
M  V30 88 1 20 58
M  V30 89 1 22 48
M  V30 90 1 23 99
M  V30 91 1 24 54
M  V30 92 1 25 73
M  V30 93 1 27 57
M  V30 94 1 28 94
M  V30 95 1 29 93
M  V30 96 1 30 60
M  V30 97 1 32 51
M  V30 98 1 33 96
M  V30 99 1 34 78
M  V30 100 1 35 87
M  V30 101 1 37 75
M  V30 102 1 38 67
M  V30 103 1 39 63
M  V30 104 1 40 66
M  V30 105 1 42 84
M  V30 106 1 43 72
M  V30 107 1 44 69
M  V30 108 1 45 81
M  V30 END BOND
M  V30 END CTAB
M  END

$$$$
