
     RDKit          3D

  0  0  0  0  0  0  0  0  0  0999 V3000
M  V30 BEGIN CTAB
M  V30 COUNTS 99 108 0 0 0
M  V30 BEGIN ATOM
M  V30 1 Pd 4.6508 0.7787 -1.9320 0
M  V30 2 Pb 4.8248 1.2796 -1.0816 0
M  V30 3 Pb 4.4466 1.6563 -2.3738 0
M  V30 4 Pb 4.9093 -0.0784 -1.4884 0
M  V30 5 Pb 4.5133 0.2548 -2.7761 0
M  V30 6 Pd -3.4507 4.7983 -4.4786 0
M  V30 7 Pb -3.4336 4.3977 -3.5625 0
M  V30 8 Pb -3.0804 5.6622 -4.1342 0
M  V30 9 Pb -3.6803 3.9010 -4.8504 0
M  V30 10 Pb -3.4131 5.1832 -5.3991 0
M  V30 11 Pd -3.8256 0.3500 5.0567 0
M  V30 12 Pb -3.3036 0.9853 4.4826 0
M  V30 13 Pb -4.6349 0.4176 4.4739 0
M  V30 14 Pb -4.2670 -0.3607 5.6005 0
M  V30 15 Pb -2.9916 0.2181 5.5860 0
M  V30 16 Pd -2.2963 -6.5014 5.1836 0
M  V30 17 Pb -2.9523 -6.0084 5.7517 0
M  V30 18 Pb -1.5621 -6.3569 5.8486 0
M  V30 19 Pb -2.9755 -6.5073 4.4507 0
M  V30 20 Pb -1.6043 -6.8956 4.5822 0
M  V30 21 Pd -4.3070 -1.4128 0.2594 0
M  V30 22 Pb -4.0487 -0.4774 0.0126 0
M  V30 23 Pb -5.0162 -1.0201 0.8455 0
M  V30 24 Pb -4.5520 -2.3411 0.5450 0
M  V30 25 Pb -3.5720 -1.7988 -0.3011 0
M  V30 26 Pd 4.3241 -4.1779 3.9842 0
M  V30 27 Pb 3.8547 -4.3653 4.8491 0
M  V30 28 Pb 4.8105 -3.3837 4.3523 0
M  V30 29 Pb 4.7334 -3.9883 3.0943 0
M  V30 30 Pb 3.8093 -4.9460 3.6060 0
M  V30 31 Pd 3.3117 1.0232 3.6506 0
M  V30 32 Pb 3.8697 1.4332 2.9255 0
M  V30 33 Pb 4.1019 0.5224 4.0079 0
M  V30 34 Pb 2.7547 0.6635 4.3952 0
M  V30 35 Pb 2.4841 1.4903 3.3278 0
M  V30 36 Pd 0.7324 -1.0019 -5.5611 0
M  V30 37 Pb 0.4279 -1.5859 -4.8093 0
M  V30 38 Pb 1.0201 -0.3699 -6.2782 0
M  V30 39 Pb -0.2234 -0.7661 -5.7351 0
M  V30 40 Pb 1.6969 -1.1782 -5.3641 0
M  V30 41 Pd 0.7420 6.1330 -6.1692 0
M  V30 42 Pb 0.3152 6.7256 -5.4842 0
M  V30 43 Pb 1.5149 5.9293 -5.5668 0
M  V30 44 Pb 1.0896 5.4494 -6.8062 0
M  V30 45 Pb -0.0601 6.2729 -6.7469 0
M  V30 46 Ag -3.3948 4.0744 -2.8868 0
M  V30 47 Fe -3.6448 2.1436 -1.5252 0
M  V30 48 Ag -3.8770 0.2420 -0.1200 0
M  V30 49 Ag -3.0150 -2.1100 -0.6984 0
M  V30 50 Fe -1.4236 -2.0653 -2.4619 0
M  V30 51 Ag 0.1541 -1.9841 -4.2364 0
M  V30 52 Ag -3.4591 -6.4028 3.8877 0
M  V30 53 Fe -4.1581 -4.7911 2.2885 0
M  V30 54 Ag -4.7007 -3.0405 0.7766 0
M  V30 55 Ag -0.9519 -6.1872 6.2528 0
M  V30 56 Fe 1.2693 -5.3767 6.0068 0
M  V30 57 Ag 3.4274 -4.5591 5.4367 0
M  V30 58 Ag -2.3291 0.1029 5.9100 0
M  V30 59 Fe 0.0104 0.2263 5.5478 0
M  V30 60 Ag 2.2907 0.4447 4.9379 0
M  V30 61 Ag -2.8265 1.4014 4.0743 0
M  V30 62 Fe -0.5267 1.6906 3.5361 0
M  V30 63 Ag 1.8187 1.7956 3.1480 0
M  V30 64 Ag -1.0209 -7.0990 4.1609 0
M  V30 65 Fe 1.1991 -6.4318 3.6552 0
M  V30 66 Ag 3.3646 -5.5030 3.3763 0
M  V30 67 Ag -4.5123 -0.9583 5.9766 0
M  V30 68 Fe -4.1095 -3.2863 6.1830 0
M  V30 69 Ag -3.4298 -5.5572 6.1086 0
M  V30 70 Ag -3.7414 3.2070 -5.1226 0
M  V30 71 Fe -2.4508 1.2582 -5.5336 0
M  V30 72 Ag -0.9319 -0.5411 -5.8317 0
M  V30 73 Ag 5.1273 -0.7218 -1.1725 0
M  V30 74 Fe 5.0811 -2.2802 0.6167 0
M  V30 75 Ag 5.0133 -3.8194 2.4218 0
M  V30 76 Ag 1.2302 0.1526 -6.7705 0
M  V30 77 Fe 1.3386 2.4920 -7.1441 0
M  V30 78 Ag 1.3035 4.8620 -7.2145 0
M  V30 79 Ag 4.3410 2.3478 -2.6545 0
M  V30 80 Fe 3.1932 4.0174 -3.8991 0
M  V30 81 Ag 2.0912 5.7288 -5.1285 0
M  V30 82 Ba 4.9840 1.6718 -0.4600 0
M  V30 83 Ga 4.6106 1.6852 0.9700 0
M  V30 84 Ba 4.2994 1.7764 2.4119 0
M  V30 85 Ba -3.3107 5.4855 -6.0758 0
M  V30 86 Ga -2.0486 5.9405 -6.6805 0
M  V30 87 Ba -0.7031 6.3389 -7.1233 0
M  V30 88 Ba -2.7178 6.2884 -3.9321 0
M  V30 89 Ga -1.4029 6.7699 -4.4033 0
M  V30 90 Ba -0.0833 7.1087 -4.9750 0
M  V30 91 Ba 4.4570 -0.1957 -3.3770 0
M  V30 92 Ga 3.4220 -0.7139 -4.2951 0
M  V30 93 Ba 2.4325 -1.2647 -5.2441 0
M  V30 94 Ba 5.1796 -2.7711 4.5832 0
M  V30 95 Ga 4.9351 -1.3200 4.4522 0
M  V30 96 Ba 4.6655 0.1252 4.3069 0
M  V30 97 Ba -5.2285 0.4140 4.0159 0
M  V30 98 Ga -5.4105 -0.1261 2.6554 0
M  V30 99 Ba -5.5169 -0.6890 1.2960 0
M  V30 END ATOM
M  V30 BEGIN BOND
M  V30 1 1 1 2
M  V30 2 1 1 3
M  V30 3 1 1 4
M  V30 4 1 1 5
M  V30 5 1 6 7
M  V30 6 1 6 8
M  V30 7 1 6 9
M  V30 8 1 6 10
M  V30 9 1 11 12
M  V30 10 1 11 13
M  V30 11 1 11 14
M  V30 12 1 11 15
M  V30 13 1 16 17
M  V30 14 1 16 18
M  V30 15 1 16 19
M  V30 16 1 16 20
M  V30 17 1 21 22
M  V30 18 1 21 23
M  V30 19 1 21 24
M  V30 20 1 21 25
M  V30 21 1 26 27
M  V30 22 1 26 28
M  V30 23 1 26 29
M  V30 24 1 26 30
M  V30 25 1 31 32
M  V30 26 1 31 33
M  V30 27 1 31 34
M  V30 28 1 31 35
M  V30 29 1 36 37
M  V30 30 1 36 38
M  V30 31 1 36 39
M  V30 32 1 36 40
M  V30 33 1 41 42
M  V30 34 1 41 43
M  V30 35 1 41 44
M  V30 36 1 41 45
M  V30 37 1 46 47
M  V30 38 1 47 48
M  V30 39 1 49 50
M  V30 40 1 50 51
M  V30 41 1 52 53
M  V30 42 1 53 54
M  V30 43 1 55 56
M  V30 44 1 56 57
M  V30 45 1 58 59
M  V30 46 1 59 60
M  V30 47 1 61 62
M  V30 48 1 62 63
M  V30 49 1 64 65
M  V30 50 1 65 66
M  V30 51 1 67 68
M  V30 52 1 68 69
M  V30 53 1 70 71
M  V30 54 1 71 72
M  V30 55 1 73 74
M  V30 56 1 74 75
M  V30 57 1 76 77
M  V30 58 1 77 78
M  V30 59 1 79 80
M  V30 60 1 80 81
M  V30 61 1 82 83
M  V30 62 1 83 84
M  V30 63 1 85 86
M  V30 64 1 86 87
M  V30 65 1 88 89
M  V30 66 1 89 90
M  V30 67 1 91 92
M  V30 68 1 92 93
M  V30 69 1 94 95
M  V30 70 1 95 96
M  V30 71 1 97 98
M  V30 72 1 98 99
M  V30 73 1 2 82
M  V30 74 1 3 79
M  V30 75 1 4 73
M  V30 76 1 5 91
M  V30 77 1 7 46
M  V30 78 1 8 88
M  V30 79 1 9 70
M  V30 80 1 10 85
M  V30 81 1 12 61
M  V30 82 1 13 97
M  V30 83 1 14 67
M  V30 84 1 15 58
M  V30 85 1 17 69
M  V30 86 1 18 55
M  V30 87 1 19 52
M  V30 88 1 20 64
M  V30 89 1 22 48
M  V30 90 1 23 99
M  V30 91 1 24 54
M  V30 92 1 25 49
M  V30 93 1 27 57
M  V30 94 1 28 94
M  V30 95 1 29 75
M  V30 96 1 30 66
M  V30 97 1 32 84
M  V30 98 1 33 96
M  V30 99 1 34 60
M  V30 100 1 35 63
M  V30 101 1 37 51
M  V30 102 1 38 76
M  V30 103 1 39 72
M  V30 104 1 40 93
M  V30 105 1 42 90
M  V30 106 1 43 81
M  V30 107 1 44 78
M  V30 108 1 45 87
M  V30 END BOND
M  V30 END CTAB
M  END

$$$$
