
     RDKit          3D

  0  0  0  0  0  0  0  0  0  0999 V3000
M  V30 BEGIN CTAB
M  V30 COUNTS 99 108 0 0 0
M  V30 BEGIN ATOM
M  V30 1 Pd 3.9104 3.0625 2.6278 0
M  V30 2 Pb 3.2975 2.7536 3.3536 0
M  V30 3 Pb 3.6203 4.0085 2.7659 0
M  V30 4 Pb 4.2049 2.1191 2.4625 0
M  V30 5 Pb 4.5024 3.3877 1.8910 0
M  V30 6 Pd -4.0890 4.4193 -2.9070 0
M  V30 7 Pb -4.2456 3.5939 -2.3624 0
M  V30 8 Pb -3.8812 5.2492 -3.4164 0
M  V30 9 Pb -3.5542 3.9303 -3.5895 0
M  V30 10 Pb -4.3583 5.0097 -2.1465 0
M  V30 11 Pd -5.0425 -4.7392 -0.1739 0
M  V30 12 Pb -4.6586 -5.1957 0.6282 0
M  V30 13 Pb -5.3417 -4.2451 -0.9901 0
M  V30 14 Pb -4.8709 -5.5563 -0.7211 0
M  V30 15 Pb -5.1006 -3.9142 0.3887 0
M  V30 16 Pd 1.1517 -7.5945 -1.6791 0
M  V30 17 Pb 0.2585 -7.9405 -1.9593 0
M  V30 18 Pb 1.9985 -7.1703 -1.3116 0
M  V30 19 Pb 1.0326 -6.8517 -2.3376 0
M  V30 20 Pb 1.2177 -8.3018 -0.9836 0
M  V30 21 Pd -2.4792 -0.9932 -2.5798 0
M  V30 22 Pb -3.0175 -0.2991 -2.0979 0
M  V30 23 Pb -3.3376 -1.4300 -2.8528 0
M  V30 24 Pb -1.9392 -1.6970 -3.0427 0
M  V30 25 Pb -1.6143 -0.5939 -2.2739 0
M  V30 26 Pd 3.5012 -4.8836 3.0063 0
M  V30 27 Pb 3.6503 -5.2153 2.0560 0
M  V30 28 Pb 3.3030 -4.5719 3.9364 0
M  V30 29 Pb 3.8463 -3.9776 2.7511 0
M  V30 30 Pb 3.2126 -5.8001 3.2619 0
M  V30 31 Pd -0.7502 -2.4600 5.1603 0
M  V30 32 Pb -0.3917 -1.5465 5.3446 0
M  V30 33 Pb 0.0863 -2.8449 5.5532 0
M  V30 34 Pb -1.5690 -2.0845 4.7225 0
M  V30 35 Pb -1.1149 -3.3637 4.9389 0
M  V30 36 Pd 3.0259 4.4413 -2.5357 0
M  V30 37 Pb 2.8034 3.5188 -2.2256 0
M  V30 38 Pb 3.1999 5.3981 -2.7847 0
M  V30 39 Pb 2.2755 4.3279 -3.1907 0
M  V30 40 Pb 3.8006 4.4800 -1.9031 0
M  V30 41 Pd 0.6315 8.7882 -0.9796 0
M  V30 42 Pb 0.1362 8.9285 -1.8313 0
M  V30 43 Pb 1.0977 8.5773 -0.1217 0
M  V30 44 Pb 1.4903 8.7319 -1.4919 0
M  V30 45 Pb -0.2638 8.7023 -0.5339 0
M  V30 46 Ag 2.8252 2.5209 3.8862 0
M  V30 47 Fe 1.3561 0.8472 4.7067 0
M  V30 48 Ag -0.0966 -0.8694 5.4655 0
M  V30 49 Ag -0.9393 -0.3511 -2.0519 0
M  V30 50 Fe 0.8224 1.2408 -2.0161 0
M  V30 51 Ag 2.5714 2.8469 -1.9912 0
M  V30 52 Ag 0.8780 -6.2907 -2.8106 0
M  V30 53 Fe -0.2901 -4.2484 -3.1383 0
M  V30 54 Ag -1.4968 -2.2143 -3.3594 0
M  V30 55 Ag -5.0453 -3.3328 0.8598 0
M  V30 56 Fe -3.6978 -2.4819 2.6223 0
M  V30 57 Ag -2.1860 -1.8703 4.3508 0
M  V30 58 Ag -4.3598 5.5243 -1.5996 0
M  V30 59 Fe -2.8027 7.1221 -0.7749 0
M  V30 60 Ag -0.9620 8.5501 -0.2931 0
M  V30 61 Ag -3.6401 5.8815 -3.7271 0
M  V30 62 Fe -2.0272 7.5609 -3.3062 0
M  V30 63 Ag -0.3075 8.9286 -2.4283 0
M  V30 64 Ag -4.3163 -5.4670 1.2374 0
M  V30 65 Fe -2.8808 -4.8696 3.0317 0
M  V30 66 Ag -1.4475 -3.9951 4.7104 0
M  V30 67 Ag 1.2973 -8.6938 -0.3609 0
M  V30 68 Fe 2.0966 -8.0187 1.7497 0
M  V30 69 Ag 2.9935 -6.5059 3.3175 0
M  V30 70 Ag -4.6379 -6.1536 -1.1062 0
M  V30 71 Fe -2.6411 -7.2782 -1.7174 0
M  V30 72 Ag -0.4539 -8.1044 -2.1159 0
M  V30 73 Ag -2.9957 3.7123 -4.0347 0
M  V30 74 Fe -0.6246 3.8464 -3.9820 0
M  V30 75 Ag 1.7109 4.1275 -3.6473 0
M  V30 76 Ag 4.4386 1.4193 2.3165 0
M  V30 77 Fe 4.2393 -0.9450 2.4665 0
M  V30 78 Ag 4.1477 -3.3194 2.5458 0
M  V30 79 Ag 3.4178 4.7277 2.8194 0
M  V30 80 Fe 2.4319 6.5924 1.7306 0
M  V30 81 Ag 1.4239 8.3675 0.5190 0
M  V30 82 Ba -4.3542 2.9945 -1.9228 0
M  V30 83 Ga -3.8845 1.5957 -1.8548 0
M  V30 84 Ba -3.4541 0.1885 -1.7281 0
M  V30 85 Ba 2.6355 -6.8442 -1.0384 0
M  V30 86 Ga 3.1510 -6.1600 0.1872 0
M  V30 87 Ba 3.7926 -5.4622 1.3437 0
M  V30 88 Ba 4.9271 3.6636 1.3383 0
M  V30 89 Ga 4.6630 4.0727 -0.0545 0
M  V30 90 Ba 4.3971 4.4818 -1.4469 0
M  V30 91 Ba 3.3448 6.1278 -2.9087 0
M  V30 92 Ga 2.7400 7.3901 -2.4283 0
M  V30 93 Ba 2.0980 8.6235 -1.9218 0
M  V30 94 Ba 3.1221 -4.3637 4.6348 0
M  V30 95 Ga 1.9323 -3.7347 5.2423 0
M  V30 96 Ba 0.7338 -3.1049 5.8315 0
M  V30 97 Ba -5.5105 -3.8639 -1.6136 0
M  V30 98 Ga -4.7788 -2.8096 -2.3423 0
M  V30 99 Ba -3.9920 -1.7594 -3.0176 0
M  V30 END ATOM
M  V30 BEGIN BOND
M  V30 1 1 1 2
M  V30 2 1 1 3
M  V30 3 1 1 4
M  V30 4 1 1 5
M  V30 5 1 6 7
M  V30 6 1 6 8
M  V30 7 1 6 9
M  V30 8 1 6 10
M  V30 9 1 11 12
M  V30 10 1 11 13
M  V30 11 1 11 14
M  V30 12 1 11 15
M  V30 13 1 16 17
M  V30 14 1 16 18
M  V30 15 1 16 19
M  V30 16 1 16 20
M  V30 17 1 21 22
M  V30 18 1 21 23
M  V30 19 1 21 24
M  V30 20 1 21 25
M  V30 21 1 26 27
M  V30 22 1 26 28
M  V30 23 1 26 29
M  V30 24 1 26 30
M  V30 25 1 31 32
M  V30 26 1 31 33
M  V30 27 1 31 34
M  V30 28 1 31 35
M  V30 29 1 36 37
M  V30 30 1 36 38
M  V30 31 1 36 39
M  V30 32 1 36 40
M  V30 33 1 41 42
M  V30 34 1 41 43
M  V30 35 1 41 44
M  V30 36 1 41 45
M  V30 37 1 46 47
M  V30 38 1 47 48
M  V30 39 1 49 50
M  V30 40 1 50 51
M  V30 41 1 52 53
M  V30 42 1 53 54
M  V30 43 1 55 56
M  V30 44 1 56 57
M  V30 45 1 58 59
M  V30 46 1 59 60
M  V30 47 1 61 62
M  V30 48 1 62 63
M  V30 49 1 64 65
M  V30 50 1 65 66
M  V30 51 1 67 68
M  V30 52 1 68 69
M  V30 53 1 70 71
M  V30 54 1 71 72
M  V30 55 1 73 74
M  V30 56 1 74 75
M  V30 57 1 76 77
M  V30 58 1 77 78
M  V30 59 1 79 80
M  V30 60 1 80 81
M  V30 61 1 82 83
M  V30 62 1 83 84
M  V30 63 1 85 86
M  V30 64 1 86 87
M  V30 65 1 88 89
M  V30 66 1 89 90
M  V30 67 1 91 92
M  V30 68 1 92 93
M  V30 69 1 94 95
M  V30 70 1 95 96
M  V30 71 1 97 98
M  V30 72 1 98 99
M  V30 73 1 2 46
M  V30 74 1 3 79
M  V30 75 1 4 76
M  V30 76 1 5 88
M  V30 77 1 7 82
M  V30 78 1 8 61
M  V30 79 1 9 73
M  V30 80 1 10 58
M  V30 81 1 12 64
M  V30 82 1 13 97
M  V30 83 1 14 70
M  V30 84 1 15 55
M  V30 85 1 17 72
M  V30 86 1 18 85
M  V30 87 1 19 52
M  V30 88 1 20 67
M  V30 89 1 22 84
M  V30 90 1 23 99
M  V30 91 1 24 54
M  V30 92 1 25 49
M  V30 93 1 27 87
M  V30 94 1 28 94
M  V30 95 1 29 78
M  V30 96 1 30 69
M  V30 97 1 32 48
M  V30 98 1 33 96
M  V30 99 1 34 57
M  V30 100 1 35 66
M  V30 101 1 37 51
M  V30 102 1 38 91
M  V30 103 1 39 75
M  V30 104 1 40 90
M  V30 105 1 42 63
M  V30 106 1 43 81
M  V30 107 1 44 93
M  V30 108 1 45 60
M  V30 END BOND
M  V30 END CTAB
M  END

$$$$
