
     RDKit          3D

  0  0  0  0  0  0  0  0  0  0999 V3000
M  V30 BEGIN CTAB
M  V30 COUNTS 99 108 0 0 0
M  V30 BEGIN ATOM
M  V30 1 Pd 1.9236 2.9736 -3.6492 0
M  V30 2 Pb 2.2342 2.1322 -4.0973 0
M  V30 3 Pb 2.7617 2.9819 -3.1038 0
M  V30 4 Pb 1.1450 3.0646 -4.2777 0
M  V30 5 Pb 1.6228 3.7922 -3.1578 0
M  V30 6 Pd 3.7321 -0.3170 6.2983 0
M  V30 7 Pb 3.3638 -0.9679 5.6351 0
M  V30 8 Pb 4.1057 0.4435 6.8241 0
M  V30 9 Pb 2.8279 0.0769 6.4284 0
M  V30 10 Pb 4.6609 -0.5112 5.9898 0
M  V30 11 Pd -2.1416 -6.6876 0.2639 0
M  V30 12 Pb -1.1829 -6.9145 0.3878 0
M  V30 13 Pb -2.2163 -6.5382 1.2496 0
M  V30 14 Pb -3.1099 -6.4446 0.1724 0
M  V30 15 Pb -2.0048 -6.7276 -0.7468 0
M  V30 16 Pd -7.2028 -1.0916 -0.5143 0
M  V30 17 Pb -7.1830 -2.0661 -0.2893 0
M  V30 18 Pb -7.0873 -0.1394 -0.8050 0
M  V30 19 Pb -6.9625 -0.8426 0.4212 0
M  V30 20 Pb -7.3474 -1.3190 -1.4719 0
M  V30 21 Pd -1.0016 -0.7844 3.5353 0
M  V30 22 Pb -0.0579 -1.1175 3.4863 0
M  V30 23 Pb -1.2182 -1.6122 4.0490 0
M  V30 24 Pb -1.9630 -0.5200 3.5868 0
M  V30 25 Pb -0.8556 -0.0572 2.8568 0
M  V30 26 Pd -3.3437 1.3630 -5.8404 0
M  V30 27 Pb -3.8535 1.9317 -5.1931 0
M  V30 28 Pb -2.8553 0.6893 -6.3882 0
M  V30 29 Pb -2.5746 2.0043 -5.8754 0
M  V30 30 Pb -4.1107 0.7278 -5.8055 0
M  V30 31 Pd 0.9413 -4.5222 -4.3515 0
M  V30 32 Pb 1.6004 -3.8128 -4.6039 0
M  V30 33 Pb 0.3498 -4.1214 -5.0487 0
M  V30 34 Pb 0.2238 -5.1771 -4.0348 0
M  V30 35 Pb 1.5749 -4.9165 -3.6965 0
M  V30 36 Pd 0.9344 4.4113 1.6778 0
M  V30 37 Pb 0.3907 3.6271 1.3813 0
M  V30 38 Pb 1.5312 5.1656 1.9629 0
M  V30 39 Pb 0.8419 4.0545 2.6082 0
M  V30 40 Pb 0.9542 4.7811 0.7445 0
M  V30 41 Pd 6.1004 4.6166 2.7446 0
M  V30 42 Pb 6.0743 4.7234 3.7365 0
M  V30 43 Pb 6.0717 4.4121 1.7671 0
M  V30 44 Pb 5.4502 5.3706 2.6381 0
M  V30 45 Pb 6.6466 3.7919 2.8989 0
M  V30 46 Ag 2.4911 1.4882 -4.3901 0
M  V30 47 Fe 2.3034 -0.8703 -4.6227 0
M  V30 48 Ag 2.0268 -3.2250 -4.7954 0
M  V30 49 Ag -6.7070 -0.6385 1.0933 0
M  V30 50 Fe -4.7555 -0.4639 2.4309 0
M  V30 51 Ag -2.6962 -0.3709 3.6051 0
M  V30 52 Ag -6.9193 0.5336 -1.0969 0
M  V30 53 Fe -5.6511 1.5532 -2.8309 0
M  V30 54 Ag -4.2861 2.2308 -4.6562 0
M  V30 55 Ag 5.3322 -0.4645 5.6637 0
M  V30 56 Fe 6.3920 1.1930 4.3359 0
M  V30 57 Ag 6.9538 3.1342 3.0901 0
M  V30 58 Ag 4.3953 1.0880 7.0642 0
M  V30 59 Fe 5.2706 3.0305 6.0272 0
M  V30 60 Ag 6.0192 4.6608 4.4789 0
M  V30 61 Ag -0.4487 -7.0009 0.3735 0
M  V30 62 Fe 1.1731 -6.2950 -1.1792 0
M  V30 63 Ag 1.9366 -5.2562 -3.1484 0
M  V30 64 Ag -7.3516 -1.4176 -2.2094 0
M  V30 65 Fe -6.1335 -0.6851 -4.1032 0
M  V30 66 Ag -4.6905 0.2658 -5.7224 0
M  V30 67 Ag -3.8369 -6.2501 0.1616 0
M  V30 68 Fe -5.5043 -4.5635 -0.0002 0
M  V30 69 Ag -7.0915 -2.8029 -0.1782 0
M  V30 70 Ag 2.2202 0.5075 6.3990 0
M  V30 71 Fe 1.3418 2.1447 4.9229 0
M  V30 72 Ag 0.7127 3.7325 3.2745 0
M  V30 73 Ag 3.4168 3.0520 -2.7447 0
M  V30 74 Fe 4.7141 3.6241 -0.8396 0
M  V30 75 Ag 6.0330 4.1883 1.0531 0
M  V30 76 Ag -2.5350 0.0971 -6.7109 0
M  V30 77 Fe -1.2730 -1.8575 -6.2477 0
M  V30 78 Ag -0.0117 -3.7576 -5.5941 0
M  V30 79 Ag -2.2279 -6.3275 1.9687 0
M  V30 80 Fe -1.8576 -4.4187 3.3294 0
M  V30 81 Ag -1.4022 -2.2964 4.2880 0
M  V30 82 Ba 3.1038 -1.3910 5.0729 0
M  V30 83 Ga 1.8543 -1.4146 4.2854 0
M  V30 84 Ba 0.6148 -1.4547 3.4829 0
M  V30 85 Ba -0.8444 0.4143 2.2662 0
M  V30 86 Ga -0.3891 1.7336 1.7786 0
M  V30 87 Ba 0.0053 3.0211 1.1671 0
M  V30 88 Ba -1.8971 -6.7640 -1.5090 0
M  V30 89 Ga -1.0719 -6.1703 -2.6128 0
M  V30 90 Ba -0.3258 -5.6721 -3.8155 0
M  V30 91 Ba 0.6123 3.2246 -4.7877 0
M  V30 92 Ga -0.7054 2.7987 -5.3069 0
M  V30 93 Ba -2.0120 2.4997 -5.9326 0
M  V30 94 Ba 1.4123 4.4025 -2.7737 0
M  V30 95 Ga 1.1826 4.7240 -1.3490 0
M  V30 96 Ba 0.9403 5.0985 0.0606 0
M  V30 97 Ba 2.0019 5.7307 2.1264 0
M  V30 98 Ga 3.4579 5.8321 2.3644 0
M  V30 99 Ba 4.9164 5.8983 2.5993 0
M  V30 END ATOM
M  V30 BEGIN BOND
M  V30 1 1 1 2
M  V30 2 1 1 3
M  V30 3 1 1 4
M  V30 4 1 1 5
M  V30 5 1 6 7
M  V30 6 1 6 8
M  V30 7 1 6 9
M  V30 8 1 6 10
M  V30 9 1 11 12
M  V30 10 1 11 13
M  V30 11 1 11 14
M  V30 12 1 11 15
M  V30 13 1 16 17
M  V30 14 1 16 18
M  V30 15 1 16 19
M  V30 16 1 16 20
M  V30 17 1 21 22
M  V30 18 1 21 23
M  V30 19 1 21 24
M  V30 20 1 21 25
M  V30 21 1 26 27
M  V30 22 1 26 28
M  V30 23 1 26 29
M  V30 24 1 26 30
M  V30 25 1 31 32
M  V30 26 1 31 33
M  V30 27 1 31 34
M  V30 28 1 31 35
M  V30 29 1 36 37
M  V30 30 1 36 38
M  V30 31 1 36 39
M  V30 32 1 36 40
M  V30 33 1 41 42
M  V30 34 1 41 43
M  V30 35 1 41 44
M  V30 36 1 41 45
M  V30 37 1 46 47
M  V30 38 1 47 48
M  V30 39 1 49 50
M  V30 40 1 50 51
M  V30 41 1 52 53
M  V30 42 1 53 54
M  V30 43 1 55 56
M  V30 44 1 56 57
M  V30 45 1 58 59
M  V30 46 1 59 60
M  V30 47 1 61 62
M  V30 48 1 62 63
M  V30 49 1 64 65
M  V30 50 1 65 66
M  V30 51 1 67 68
M  V30 52 1 68 69
M  V30 53 1 70 71
M  V30 54 1 71 72
M  V30 55 1 73 74
M  V30 56 1 74 75
M  V30 57 1 76 77
M  V30 58 1 77 78
M  V30 59 1 79 80
M  V30 60 1 80 81
M  V30 61 1 82 83
M  V30 62 1 83 84
M  V30 63 1 85 86
M  V30 64 1 86 87
M  V30 65 1 88 89
M  V30 66 1 89 90
M  V30 67 1 91 92
M  V30 68 1 92 93
M  V30 69 1 94 95
M  V30 70 1 95 96
M  V30 71 1 97 98
M  V30 72 1 98 99
M  V30 73 1 2 46
M  V30 74 1 3 73
M  V30 75 1 4 91
M  V30 76 1 5 94
M  V30 77 1 7 82
M  V30 78 1 8 58
M  V30 79 1 9 70
M  V30 80 1 10 55
M  V30 81 1 12 61
M  V30 82 1 13 79
M  V30 83 1 14 67
M  V30 84 1 15 88
M  V30 85 1 17 69
M  V30 86 1 18 52
M  V30 87 1 19 49
M  V30 88 1 20 64
M  V30 89 1 22 84
M  V30 90 1 23 81
M  V30 91 1 24 51
M  V30 92 1 25 85
M  V30 93 1 27 54
M  V30 94 1 28 76
M  V30 95 1 29 93
M  V30 96 1 30 66
M  V30 97 1 32 48
M  V30 98 1 33 78
M  V30 99 1 34 90
M  V30 100 1 35 63
M  V30 101 1 37 87
M  V30 102 1 38 97
M  V30 103 1 39 72
M  V30 104 1 40 96
M  V30 105 1 42 60
M  V30 106 1 43 75
M  V30 107 1 44 99
M  V30 108 1 45 57
M  V30 END BOND
M  V30 END CTAB
M  END

$$$$
