
     RDKit          3D

  0  0  0  0  0  0  0  0  0  0999 V3000
M  V30 BEGIN CTAB
M  V30 COUNTS 99 108 0 0 0
M  V30 BEGIN ATOM
M  V30 1 Pd 6.3592 -3.3979 1.1076 0
M  V30 2 Pb 6.2147 -3.9369 1.9317 0
M  V30 3 Pb 6.2888 -4.2450 0.5947 0
M  V30 4 Pb 6.4191 -2.8850 0.2307 0
M  V30 5 Pb 6.3878 -2.5499 1.6446 0
M  V30 6 Pd -0.3162 4.4241 -4.6769 0
M  V30 7 Pb -1.1608 4.9193 -4.4988 0
M  V30 8 Pb -0.8158 3.8766 -5.3511 0
M  V30 9 Pb 0.5276 3.9141 -4.8294 0
M  V30 10 Pb 0.1479 4.9313 -3.9506 0
M  V30 11 Pd -4.0400 -2.2861 0.6621 0
M  V30 12 Pb -3.6113 -3.1158 0.3359 0
M  V30 13 Pb -4.5034 -2.2528 -0.2235 0
M  V30 14 Pb -3.5491 -2.3745 1.5597 0
M  V30 15 Pb -4.5655 -1.4974 0.9979 0
M  V30 16 Pd 0.3348 -4.5915 4.3375 0
M  V30 17 Pb 0.0553 -5.2222 3.6281 0
M  V30 18 Pb 1.1796 -5.1025 4.4612 0
M  V30 19 Pb -0.4939 -4.0114 4.1648 0
M  V30 20 Pb 0.7278 -3.9873 5.0303 0
M  V30 21 Pd 0.4347 5.0584 2.9263 0
M  V30 22 Pb 1.3207 4.5767 3.0872 0
M  V30 23 Pb -0.4805 5.4202 2.7656 0
M  V30 24 Pb 0.1028 4.7820 3.8170 0
M  V30 25 Pb 0.7387 5.3589 2.0212 0
M  V30 26 Pd -5.9341 3.0386 -0.5019 0
M  V30 27 Pb -5.5569 3.6312 0.2074 0
M  V30 28 Pb -6.2799 2.5057 -1.2734 0
M  V30 29 Pb -5.7736 3.7821 -1.1431 0
M  V30 30 Pb -6.0306 2.2811 0.1494 0
M  V30 31 Pd 3.6755 -2.2068 -4.0522 0
M  V30 32 Pb 2.8123 -2.3192 -4.5447 0
M  V30 33 Pb 3.7480 -3.1907 -3.9415 0
M  V30 34 Pb 4.5046 -2.0837 -3.4731 0
M  V30 35 Pb 3.6376 -1.2259 -4.2323 0
M  V30 36 Pd 3.3374 0.0944 4.7796 0
M  V30 37 Pb 3.2379 -0.7882 5.2371 0
M  V30 38 Pb 4.1643 -0.1530 4.2593 0
M  V30 39 Pb 2.5825 0.3608 5.3610 0
M  V30 40 Pb 3.3593 1.0281 4.3642 0
M  V30 41 Pd -3.7659 -0.0065 -4.5890 0
M  V30 42 Pb -4.1714 -0.7300 -4.0288 0
M  V30 43 Pb -3.3985 0.7087 -5.1926 0
M  V30 44 Pb -2.9777 -0.5744 -4.8349 0
M  V30 45 Pb -4.5983 0.5057 -4.3724 0
M  V30 46 Ag -1.8175 5.2312 -4.3375 0
M  V30 47 Fe -3.7748 4.9250 -3.0415 0
M  V30 48 Ag -5.5696 4.3107 -1.6254 0
M  V30 49 Ag 6.1358 -4.8052 0.1375 0
M  V30 50 Fe 5.0152 -4.8495 -1.9312 0
M  V30 51 Ag 3.8988 -3.8936 -3.7689 0
M  V30 52 Ag -1.2027 5.5937 2.6814 0
M  V30 53 Fe -3.2588 4.9226 1.7059 0
M  V30 54 Ag -5.2391 4.1296 0.6668 0
M  V30 55 Ag -0.0949 4.4744 4.4558 0
M  V30 56 Fe 0.6653 2.5361 5.5409 0
M  V30 57 Ag 2.0312 0.6390 5.7626 0
M  V30 58 Ag 6.0011 -4.3762 2.4939 0
M  V30 59 Fe 4.0396 -5.0249 3.6502 0
M  V30 60 Ag 1.8707 -5.3696 4.5345 0
M  V30 61 Ag -3.2846 -3.7601 0.1917 0
M  V30 62 Fe -1.6990 -5.0718 1.3256 0
M  V30 63 Ag -0.1777 -5.5953 3.0377 0
M  V30 64 Ag 1.1710 3.5397 -4.9003 0
M  V30 65 Fe 2.3942 1.5211 -4.6588 0
M  V30 66 Ag 3.6114 -0.5007 -4.4144 0
M  V30 67 Ag 0.4893 5.2753 -3.3781 0
M  V30 68 Fe 0.7425 5.4602 -1.0232 0
M  V30 69 Ag 0.9483 5.5947 1.3397 0
M  V30 70 Ag 2.1407 -2.3903 -4.8719 0
M  V30 71 Fe -0.1294 -1.6936 -4.9675 0
M  V30 72 Ag -2.4000 -0.9987 -5.0631 0
M  V30 73 Ba 6.4815 -2.5123 -0.4374 0
M  V30 74 Ga 5.7465 -2.2785 -1.7205 0
M  V30 75 Ba 5.1314 -1.9576 -3.0469 0
M  V30 76 Ba 6.4236 -1.9162 2.0514 0
M  V30 77 Ga 5.5655 -1.1298 2.9695 0
M  V30 78 Ba 4.8252 -0.2455 3.9004 0
M  V30 79 Ba 1.9989 4.2225 3.1811 0
M  V30 80 Ga 2.6271 2.9421 3.6468 0
M  V30 81 Ba 3.4171 1.7385 4.0686 0
M  V30 82 Ba -4.8274 -2.3093 -0.8980 0
M  V30 83 Ga -4.6586 -1.7441 -2.2512 0
M  V30 84 Ba -4.5616 -1.2360 -3.6338 0
M  V30 85 Ba -3.2217 -2.4178 2.2618 0
M  V30 86 Ga -2.1259 -3.0423 3.0822 0
M  V30 87 Ba -1.1107 -3.5513 4.0695 0
M  V30 88 Ba -6.5197 2.1943 -1.9122 0
M  V30 89 Ga -5.8800 1.4899 -3.0416 0
M  V30 90 Ba -5.2713 0.7860 -4.1881 0
M  V30 91 Ba -5.0100 -0.9532 1.2751 0
M  V30 92 Ga -5.5169 0.3939 0.9269 0
M  V30 93 Ba -6.0794 1.7398 0.6717 0
M  V30 94 Ba -1.2322 3.4792 -5.8354 0
M  V30 95 Ga -2.1672 2.3362 -5.7339 0
M  V30 96 Ba -3.1127 1.1982 -5.6919 0
M  V30 97 Ba 1.1582 -3.6425 5.5409 0
M  V30 98 Ga 2.0951 -2.5008 5.5813 0
M  V30 99 Ba 3.0425 -1.3705 5.6690 0
M  V30 END ATOM
M  V30 BEGIN BOND
M  V30 1 1 1 2
M  V30 2 1 1 3
M  V30 3 1 1 4
M  V30 4 1 1 5
M  V30 5 1 6 7
M  V30 6 1 6 8
M  V30 7 1 6 9
M  V30 8 1 6 10
M  V30 9 1 11 12
M  V30 10 1 11 13
M  V30 11 1 11 14
M  V30 12 1 11 15
M  V30 13 1 16 17
M  V30 14 1 16 18
M  V30 15 1 16 19
M  V30 16 1 16 20
M  V30 17 1 21 22
M  V30 18 1 21 23
M  V30 19 1 21 24
M  V30 20 1 21 25
M  V30 21 1 26 27
M  V30 22 1 26 28
M  V30 23 1 26 29
M  V30 24 1 26 30
M  V30 25 1 31 32
M  V30 26 1 31 33
M  V30 27 1 31 34
M  V30 28 1 31 35
M  V30 29 1 36 37
M  V30 30 1 36 38
M  V30 31 1 36 39
M  V30 32 1 36 40
M  V30 33 1 41 42
M  V30 34 1 41 43
M  V30 35 1 41 44
M  V30 36 1 41 45
M  V30 37 1 46 47
M  V30 38 1 47 48
M  V30 39 1 49 50
M  V30 40 1 50 51
M  V30 41 1 52 53
M  V30 42 1 53 54
M  V30 43 1 55 56
M  V30 44 1 56 57
M  V30 45 1 58 59
M  V30 46 1 59 60
M  V30 47 1 61 62
M  V30 48 1 62 63
M  V30 49 1 64 65
M  V30 50 1 65 66
M  V30 51 1 67 68
M  V30 52 1 68 69
M  V30 53 1 70 71
M  V30 54 1 71 72
M  V30 55 1 73 74
M  V30 56 1 74 75
M  V30 57 1 76 77
M  V30 58 1 77 78
M  V30 59 1 79 80
M  V30 60 1 80 81
M  V30 61 1 82 83
M  V30 62 1 83 84
M  V30 63 1 85 86
M  V30 64 1 86 87
M  V30 65 1 88 89
M  V30 66 1 89 90
M  V30 67 1 91 92
M  V30 68 1 92 93
M  V30 69 1 94 95
M  V30 70 1 95 96
M  V30 71 1 97 98
M  V30 72 1 98 99
M  V30 73 1 2 58
M  V30 74 1 3 49
M  V30 75 1 4 73
M  V30 76 1 5 76
M  V30 77 1 7 46
M  V30 78 1 8 94
M  V30 79 1 9 64
M  V30 80 1 10 67
M  V30 81 1 12 61
M  V30 82 1 13 82
M  V30 83 1 14 85
M  V30 84 1 15 91
M  V30 85 1 17 63
M  V30 86 1 18 60
M  V30 87 1 19 87
M  V30 88 1 20 97
M  V30 89 1 22 79
M  V30 90 1 23 52
M  V30 91 1 24 55
M  V30 92 1 25 69
M  V30 93 1 27 54
M  V30 94 1 28 88
M  V30 95 1 29 48
M  V30 96 1 30 93
M  V30 97 1 32 70
M  V30 98 1 33 51
M  V30 99 1 34 75
M  V30 100 1 35 66
M  V30 101 1 37 99
M  V30 102 1 38 78
M  V30 103 1 39 57
M  V30 104 1 40 81
M  V30 105 1 42 84
M  V30 106 1 43 96
M  V30 107 1 44 72
M  V30 108 1 45 90
M  V30 END BOND
M  V30 END CTAB
M  END

$$$$
