
     RDKit          3D

  0  0  0  0  0  0  0  0  0  0999 V3000
M  V30 BEGIN CTAB
M  V30 COUNTS 99 108 0 0 0
M  V30 BEGIN ATOM
M  V30 1 Pd -2.3115 -0.8416 -2.1619 0
M  V30 2 Pb -3.0718 -0.1895 -2.1444 0
M  V30 3 Pb -1.7720 -0.1439 -1.6914 0
M  V30 4 Pb -2.8439 -1.5354 -2.6516 0
M  V30 5 Pb -1.5296 -1.4669 -2.1872 0
M  V30 6 Pd 4.5143 5.6499 -3.2905 0
M  V30 7 Pb 5.0014 5.4059 -2.4518 0
M  V30 8 Pb 3.8155 6.1265 -2.7560 0
M  V30 9 Pb 5.1359 5.0755 -3.8235 0
M  V30 10 Pb 3.9801 5.8485 -4.1112 0
M  V30 11 Pd -1.9139 1.4618 5.6955 0
M  V30 12 Pb -2.7844 1.1933 6.0877 0
M  V30 13 Pb -1.0153 1.7590 5.3656 0
M  V30 14 Pb -1.4644 0.8155 6.3099 0
M  V30 15 Pb -2.4091 2.0081 4.9881 0
M  V30 16 Pd 0.3337 -5.2329 4.5091 0
M  V30 17 Pb 0.2649 -4.6920 5.3463 0
M  V30 18 Pb -0.6348 -5.4777 4.5425 0
M  V30 19 Pb 1.2857 -4.9404 4.4345 0
M  V30 20 Pb 0.3588 -5.6870 3.6174 0
M  V30 21 Pd 5.1939 0.4615 2.4007 0
M  V30 22 Pb 5.4639 1.3258 1.9732 0
M  V30 23 Pb 4.5254 0.9596 2.9565 0
M  V30 24 Pb 4.9606 -0.4121 2.8290 0
M  V30 25 Pb 5.8020 -0.0350 1.7825 0
M  V30 26 Pd -4.5779 -5.3507 -0.6578 0
M  V30 27 Pb -4.6576 -5.6114 0.3035 0
M  V30 28 Pb -5.4477 -4.8626 -0.6281 0
M  V30 29 Pb -4.4531 -5.0039 -1.5868 0
M  V30 30 Pb -3.6671 -5.7653 -0.6363 0
M  V30 31 Pd -6.0577 1.2619 1.4540 0
M  V30 32 Pb -5.6677 1.4464 0.5493 0
M  V30 33 Pb -6.6569 0.5887 1.0263 0
M  V30 34 Pb -5.3775 1.8549 1.9342 0
M  V30 35 Pb -6.4892 1.0625 2.3246 0
M  V30 36 Pd 4.7029 -1.4473 -4.4959 0
M  V30 37 Pb 5.4119 -1.6637 -3.8275 0
M  V30 38 Pb 3.9352 -1.1497 -5.0600 0
M  V30 39 Pb 5.2706 -0.7048 -4.8510 0
M  V30 40 Pb 4.0720 -2.0888 -4.0629 0
M  V30 41 Pd 0.1349 3.9723 -3.5225 0
M  V30 42 Pb 0.2817 4.7612 -2.9252 0
M  V30 43 Pb -0.0854 3.4024 -2.7281 0
M  V30 44 Pb 0.1139 3.1798 -4.1300 0
M  V30 45 Pb 0.4473 4.5305 -4.2894 0
M  V30 46 Ag 5.3394 5.1961 -1.8158 0
M  V30 47 Fe 5.5219 3.5921 -0.0728 0
M  V30 48 Ag 5.6822 1.9715 1.6572 0
M  V30 49 Ag 6.1972 -0.4152 1.2722 0
M  V30 50 Fe 6.1876 -1.1583 -0.9816 0
M  V30 51 Ag 5.8919 -1.7503 -3.2604 0
M  V30 52 Ag 1.9839 -4.6729 4.3916 0
M  V30 53 Fe 3.4073 -2.8809 3.7573 0
M  V30 54 Ag 4.8330 -1.0898 3.1258 0
M  V30 55 Ag -1.3596 -5.6526 4.4685 0
M  V30 56 Fe -3.1048 -5.7668 2.8632 0
M  V30 57 Ag -4.6191 -5.7688 1.0349 0
M  V30 58 Ag -3.4760 1.0165 6.2762 0
M  V30 59 Fe -5.4486 0.8335 5.0107 0
M  V30 60 Ag -6.6935 0.9152 3.0184 0
M  V30 61 Ag 0.2791 -5.9789 2.9299 0
M  V30 62 Fe -1.2499 -6.1013 1.1147 0
M  V30 63 Ag -2.9781 -6.0388 -0.5153 0
M  V30 64 Ag -1.1604 0.2532 6.6994 0
M  V30 65 Fe -0.4290 -1.9925 6.4662 0
M  V30 66 Ag 0.2168 -4.2094 5.9170 0
M  V30 67 Ag 5.5414 4.5762 -4.2097 0
M  V30 68 Fe 5.7158 2.2630 -4.7194 0
M  V30 69 Ag 5.6486 -0.0881 -5.0490 0
M  V30 70 Ag -0.9422 -1.9335 -2.2323 0
M  V30 71 Fe 1.2942 -2.3001 -2.9441 0
M  V30 72 Ag 3.5310 -2.4792 -3.7228 0
M  V30 73 Ag 3.3102 -0.8871 -5.3764 0
M  V30 74 Fe 1.6667 0.8044 -5.1148 0
M  V30 75 Ag 0.2038 2.5986 -4.5934 0
M  V30 76 Ag -6.0472 -4.4171 -0.5975 0
M  V30 77 Fe -6.7136 -2.2260 0.0177 0
M  V30 78 Ag -7.0305 0.0137 0.7295 0
M  V30 79 Ag -0.3214 1.9872 5.1847 0
M  V30 80 Fe 1.8337 1.6397 4.2426 0
M  V30 81 Ag 4.0086 1.3662 3.3217 0
M  V30 82 Ba -3.5904 0.3548 -2.1236 0
M  V30 83 Ga -4.5082 0.9371 -1.1217 0
M  V30 84 Ba -5.4434 1.5587 -0.1602 0
M  V30 85 Ba -2.7802 2.4176 4.4492 0
M  V30 86 Ga -3.8360 2.2894 3.3888 0
M  V30 87 Ba -4.8688 2.3073 2.2986 0
M  V30 88 Ba 3.5164 5.9650 -4.6877 0
M  V30 89 Ga 2.1285 5.4974 -4.8423 0
M  V30 90 Ba 0.7627 4.9471 -4.8253 0
M  V30 91 Ba 3.2309 6.4154 -2.3841 0
M  V30 92 Ga 1.8307 5.9488 -2.3895 0
M  V30 93 Ba 0.4861 5.3524 -2.5108 0
M  V30 94 Ba -3.2007 -2.0808 -3.0277 0
M  V30 95 Ga -3.7933 -3.3832 -2.6626 0
M  V30 96 Ba -4.3769 -4.6778 -2.2575 0
M  V30 97 Ba -1.3987 0.4034 -1.3402 0
M  V30 98 Ga -0.8023 1.6915 -1.7465 0
M  V30 99 Ba -0.1948 2.9870 -2.1105 0
M  V30 END ATOM
M  V30 BEGIN BOND
M  V30 1 1 1 2
M  V30 2 1 1 3
M  V30 3 1 1 4
M  V30 4 1 1 5
M  V30 5 1 6 7
M  V30 6 1 6 8
M  V30 7 1 6 9
M  V30 8 1 6 10
M  V30 9 1 11 12
M  V30 10 1 11 13
M  V30 11 1 11 14
M  V30 12 1 11 15
M  V30 13 1 16 17
M  V30 14 1 16 18
M  V30 15 1 16 19
M  V30 16 1 16 20
M  V30 17 1 21 22
M  V30 18 1 21 23
M  V30 19 1 21 24
M  V30 20 1 21 25
M  V30 21 1 26 27
M  V30 22 1 26 28
M  V30 23 1 26 29
M  V30 24 1 26 30
M  V30 25 1 31 32
M  V30 26 1 31 33
M  V30 27 1 31 34
M  V30 28 1 31 35
M  V30 29 1 36 37
M  V30 30 1 36 38
M  V30 31 1 36 39
M  V30 32 1 36 40
M  V30 33 1 41 42
M  V30 34 1 41 43
M  V30 35 1 41 44
M  V30 36 1 41 45
M  V30 37 1 46 47
M  V30 38 1 47 48
M  V30 39 1 49 50
M  V30 40 1 50 51
M  V30 41 1 52 53
M  V30 42 1 53 54
M  V30 43 1 55 56
M  V30 44 1 56 57
M  V30 45 1 58 59
M  V30 46 1 59 60
M  V30 47 1 61 62
M  V30 48 1 62 63
M  V30 49 1 64 65
M  V30 50 1 65 66
M  V30 51 1 67 68
M  V30 52 1 68 69
M  V30 53 1 70 71
M  V30 54 1 71 72
M  V30 55 1 73 74
M  V30 56 1 74 75
M  V30 57 1 76 77
M  V30 58 1 77 78
M  V30 59 1 79 80
M  V30 60 1 80 81
M  V30 61 1 82 83
M  V30 62 1 83 84
M  V30 63 1 85 86
M  V30 64 1 86 87
M  V30 65 1 88 89
M  V30 66 1 89 90
M  V30 67 1 91 92
M  V30 68 1 92 93
M  V30 69 1 94 95
M  V30 70 1 95 96
M  V30 71 1 97 98
M  V30 72 1 98 99
M  V30 73 1 2 82
M  V30 74 1 3 97
M  V30 75 1 4 94
M  V30 76 1 5 70
M  V30 77 1 7 46
M  V30 78 1 8 91
M  V30 79 1 9 67
M  V30 80 1 10 88
M  V30 81 1 12 58
M  V30 82 1 13 79
M  V30 83 1 14 64
M  V30 84 1 15 85
M  V30 85 1 17 66
M  V30 86 1 18 55
M  V30 87 1 19 52
M  V30 88 1 20 61
M  V30 89 1 22 48
M  V30 90 1 23 81
M  V30 91 1 24 54
M  V30 92 1 25 49
M  V30 93 1 27 57
M  V30 94 1 28 76
M  V30 95 1 29 96
M  V30 96 1 30 63
M  V30 97 1 32 84
M  V30 98 1 33 78
M  V30 99 1 34 87
M  V30 100 1 35 60
M  V30 101 1 37 51
M  V30 102 1 38 73
M  V30 103 1 39 69
M  V30 104 1 40 72
M  V30 105 1 42 93
M  V30 106 1 43 99
M  V30 107 1 44 75
M  V30 108 1 45 90
M  V30 END BOND
M  V30 END CTAB
M  END

$$$$
