
     RDKit          3D

  0  0  0  0  0  0  0  0  0  0999 V3000
M  V30 BEGIN CTAB
M  V30 COUNTS 99 108 0 0 0
M  V30 BEGIN ATOM
M  V30 1 Pd -2.1341 -2.1204 3.7238 0
M  V30 2 Pb -1.9558 -2.9127 3.1346 0
M  V30 3 Pb -2.3347 -1.3834 4.3733 0
M  V30 4 Pb -1.2237 -2.1417 4.1430 0
M  V30 5 Pb -3.0579 -2.1045 3.3310 0
M  V30 6 Pd -2.1138 7.3419 1.0080 0
M  V30 7 Pb -1.5220 7.0956 0.2407 0
M  V30 8 Pb -1.3311 7.6071 1.5657 0
M  V30 9 Pb -2.8977 6.9947 0.4968 0
M  V30 10 Pb -2.7066 7.5316 1.8055 0
M  V30 11 Pd 2.7007 -5.0936 -5.6559 0
M  V30 12 Pb 3.2207 -5.8050 -5.1799 0
M  V30 13 Pb 2.1705 -4.3512 -6.0629 0
M  V30 14 Pb 3.5204 -4.5490 -5.8330 0
M  V30 15 Pb 1.8660 -5.6060 -5.4587 0
M  V30 16 Pd 5.4232 1.0909 -3.0975 0
M  V30 17 Pb 5.6929 0.5539 -3.8945 0
M  V30 18 Pb 5.8808 0.4213 -2.5237 0
M  V30 19 Pb 4.9517 1.7508 -3.6841 0
M  V30 20 Pb 5.0789 1.5051 -2.2482 0
M  V30 21 Pd 0.2643 2.0933 -4.4240 0
M  V30 22 Pb 0.1815 2.9243 -3.8698 0
M  V30 23 Pb 0.3504 1.2928 -5.0186 0
M  V30 24 Pb 1.1440 2.4503 -4.7384 0
M  V30 25 Pb -0.5970 1.7032 -4.0935 0
M  V30 26 Pd 3.6758 -1.9902 3.1655 0
M  V30 27 Pb 4.4452 -2.0759 2.5425 0
M  V30 28 Pb 3.7037 -2.9775 3.3008 0
M  V30 29 Pb 2.9068 -1.9251 3.8025 0
M  V30 30 Pb 3.6335 -1.0232 2.8933 0
M  V30 31 Pd 1.4108 -7.2154 -1.2066 0
M  V30 32 Pb 0.6123 -6.9352 -0.6722 0
M  V30 33 Pb 1.9426 -7.1865 -0.3621 0
M  V30 34 Pb 0.8725 -7.2197 -2.0482 0
M  V30 35 Pb 2.2214 -7.4340 -1.7537 0
M  V30 36 Pd -5.6953 0.8916 0.4863 0
M  V30 37 Pb -5.2244 0.5802 -0.3380 0
M  V30 38 Pb -6.1299 1.2481 1.3098 0
M  V30 39 Pb -5.7319 1.8088 0.0921 0
M  V30 40 Pb -5.6332 -0.0110 0.9162 0
M  V30 41 Pd -3.5538 5.1043 6.0033 0
M  V30 42 Pb -2.6547 5.4867 6.2026 0
M  V30 43 Pb -3.3202 4.2172 6.3972 0
M  V30 44 Pb -4.4294 4.7071 5.7403 0
M  V30 45 Pb -3.7604 5.9397 5.4755 0
M  V30 46 Ag -1.0916 6.8796 -0.3341 0
M  V30 47 Fe -0.4884 5.1988 -1.9023 0
M  V30 48 Ag 0.1884 3.5854 -3.5105 0
M  V30 49 Ag -1.9105 -3.5320 2.7077 0
M  V30 50 Fe -0.8932 -5.0867 1.2240 0
M  V30 51 Ag 0.0324 -6.7006 -0.2566 0
M  V30 52 Ag -1.2192 1.3402 -3.8780 0
M  V30 53 Fe -3.0327 0.8842 -2.4126 0
M  V30 54 Ag -4.8576 0.4071 -0.9681 0
M  V30 55 Ag 6.1672 -0.0779 -2.0541 0
M  V30 56 Fe 5.7299 -1.1803 -0.0073 0
M  V30 57 Ag 4.9981 -2.0982 2.0465 0
M  V30 58 Ag -0.8439 7.6981 2.1195 0
M  V30 59 Fe -0.9767 6.9358 4.3493 0
M  V30 60 Ag -1.9983 5.8340 6.1697 0
M  V30 61 Ag 4.8166 1.6985 -1.5654 0
M  V30 62 Fe 4.1994 0.8034 0.5558 0
M  V30 63 Ag 3.6503 -0.3368 2.5757 0
M  V30 64 Ag 4.0866 -4.0738 -5.9592 0
M  V30 65 Fe 5.0699 -2.0165 -5.2986 0
M  V30 66 Ag 5.8407 0.0547 -4.4320 0
M  V30 67 Ag -3.4699 6.6666 0.1437 0
M  V30 68 Fe -4.6672 4.6309 -0.0881 0
M  V30 69 Ag -5.7272 2.5094 -0.1724 0
M  V30 70 Ag -6.4048 1.5631 1.9287 0
M  V30 71 Fe -5.8588 2.9564 3.7673 0
M  V30 72 Ag -5.0431 4.3603 5.4946 0
M  V30 73 Ag -2.4260 -0.8721 4.9187 0
M  V30 74 Fe -2.7997 1.3144 5.7718 0
M  V30 75 Ag -3.1808 3.5095 6.5989 0
M  V30 76 Ag 3.7109 -3.7239 3.2819 0
M  V30 77 Fe 3.0619 -5.5301 1.8886 0
M  V30 78 Ag 2.2981 -7.1086 0.2917 0
M  V30 79 Ag 1.7986 -3.7580 -6.3293 0
M  V30 80 Fe 1.0800 -1.5306 -5.9250 0
M  V30 81 Ag 0.3861 0.6952 -5.4719 0
M  V30 82 Ba 4.6053 2.2264 -4.1507 0
M  V30 83 Ga 3.2066 2.4800 -4.5473 0
M  V30 84 Ba 1.8077 2.7334 -4.9432 0
M  V30 85 Ba 1.2510 -5.9910 -5.2730 0
M  V30 86 Ga 0.8359 -6.6136 -4.0039 0
M  V30 87 Ba 0.4996 -7.2065 -2.6977 0
M  V30 88 Ba -3.1462 7.6871 2.4077 0
M  V30 89 Ga -3.5046 7.0908 3.7241 0
M  V30 90 Ba -3.9080 6.5539 5.0532 0
M  V30 91 Ba 3.5688 -6.3375 -4.7795 0
M  V30 92 Ga 3.2253 -6.9741 -3.4906 0
M  V30 93 Ba 2.8139 -7.5627 -2.1988 0
M  V30 94 Ba -0.5824 -2.1026 4.5354 0
M  V30 95 Ga 0.8815 -2.0168 4.3570 0
M  V30 96 Ba 2.3554 -1.9269 4.3119 0
M  V30 97 Ba -3.7445 -2.1590 3.0241 0
M  V30 98 Ga -4.6485 -1.3868 2.1447 0
M  V30 99 Ba -5.6049 -0.6731 1.2712 0
M  V30 END ATOM
M  V30 BEGIN BOND
M  V30 1 1 1 2
M  V30 2 1 1 3
M  V30 3 1 1 4
M  V30 4 1 1 5
M  V30 5 1 6 7
M  V30 6 1 6 8
M  V30 7 1 6 9
M  V30 8 1 6 10
M  V30 9 1 11 12
M  V30 10 1 11 13
M  V30 11 1 11 14
M  V30 12 1 11 15
M  V30 13 1 16 17
M  V30 14 1 16 18
M  V30 15 1 16 19
M  V30 16 1 16 20
M  V30 17 1 21 22
M  V30 18 1 21 23
M  V30 19 1 21 24
M  V30 20 1 21 25
M  V30 21 1 26 27
M  V30 22 1 26 28
M  V30 23 1 26 29
M  V30 24 1 26 30
M  V30 25 1 31 32
M  V30 26 1 31 33
M  V30 27 1 31 34
M  V30 28 1 31 35
M  V30 29 1 36 37
M  V30 30 1 36 38
M  V30 31 1 36 39
M  V30 32 1 36 40
M  V30 33 1 41 42
M  V30 34 1 41 43
M  V30 35 1 41 44
M  V30 36 1 41 45
M  V30 37 1 46 47
M  V30 38 1 47 48
M  V30 39 1 49 50
M  V30 40 1 50 51
M  V30 41 1 52 53
M  V30 42 1 53 54
M  V30 43 1 55 56
M  V30 44 1 56 57
M  V30 45 1 58 59
M  V30 46 1 59 60
M  V30 47 1 61 62
M  V30 48 1 62 63
M  V30 49 1 64 65
M  V30 50 1 65 66
M  V30 51 1 67 68
M  V30 52 1 68 69
M  V30 53 1 70 71
M  V30 54 1 71 72
M  V30 55 1 73 74
M  V30 56 1 74 75
M  V30 57 1 76 77
M  V30 58 1 77 78
M  V30 59 1 79 80
M  V30 60 1 80 81
M  V30 61 1 82 83
M  V30 62 1 83 84
M  V30 63 1 85 86
M  V30 64 1 86 87
M  V30 65 1 88 89
M  V30 66 1 89 90
M  V30 67 1 91 92
M  V30 68 1 92 93
M  V30 69 1 94 95
M  V30 70 1 95 96
M  V30 71 1 97 98
M  V30 72 1 98 99
M  V30 73 1 2 49
M  V30 74 1 3 73
M  V30 75 1 4 94
M  V30 76 1 5 97
M  V30 77 1 7 46
M  V30 78 1 8 58
M  V30 79 1 9 67
M  V30 80 1 10 88
M  V30 81 1 12 91
M  V30 82 1 13 79
M  V30 83 1 14 64
M  V30 84 1 15 85
M  V30 85 1 17 66
M  V30 86 1 18 55
M  V30 87 1 19 82
M  V30 88 1 20 61
M  V30 89 1 22 48
M  V30 90 1 23 81
M  V30 91 1 24 84
M  V30 92 1 25 52
M  V30 93 1 27 57
M  V30 94 1 28 76
M  V30 95 1 29 96
M  V30 96 1 30 63
M  V30 97 1 32 51
M  V30 98 1 33 78
M  V30 99 1 34 87
M  V30 100 1 35 93
M  V30 101 1 37 54
M  V30 102 1 38 70
M  V30 103 1 39 69
M  V30 104 1 40 99
M  V30 105 1 42 60
M  V30 106 1 43 75
M  V30 107 1 44 72
M  V30 108 1 45 90
M  V30 END BOND
M  V30 END CTAB
M  END

$$$$
