
     RDKit          3D

  0  0  0  0  0  0  0  0  0  0999 V3000
M  V30 BEGIN CTAB
M  V30 COUNTS 99 108 0 0 0
M  V30 BEGIN ATOM
M  V30 1 Pd -1.1158 5.4248 6.0455 0
M  V30 2 Pb -1.6381 4.7656 6.5809 0
M  V30 3 Pb -1.8404 5.4216 5.3563 0
M  V30 4 Pb -0.4581 5.8702 5.4136 0
M  V30 5 Pb -0.4346 5.4666 6.7696 0
M  V30 6 Pd 4.8667 -4.4954 -3.1298 0
M  V30 7 Pb 5.3456 -4.2786 -3.9727 0
M  V30 8 Pb 4.2977 -5.1679 -3.6228 0
M  V30 9 Pb 4.4324 -4.7878 -2.2829 0
M  V30 10 Pb 5.2781 -3.6748 -2.6967 0
M  V30 11 Pd 4.5704 1.1669 -3.8112 0
M  V30 12 Pb 5.1699 0.8840 -4.5515 0
M  V30 13 Pb 3.9554 1.4560 -3.0745 0
M  V30 14 Pb 4.9979 0.4670 -3.2077 0
M  V30 15 Pb 4.1071 1.7576 -4.4717 0
M  V30 16 Pd 3.3230 3.4834 3.5278 0
M  V30 17 Pb 2.9531 3.2580 2.6247 0
M  V30 18 Pb 2.8803 4.3972 3.5074 0
M  V30 19 Pb 3.7178 3.7019 4.4149 0
M  V30 20 Pb 3.5542 2.5266 3.6948 0
M  V30 21 Pd -1.0024 -2.0375 5.7342 0
M  V30 22 Pb -0.7268 -2.9232 5.3756 0
M  V30 23 Pb -0.0448 -1.7429 5.6902 0
M  V30 24 Pb -1.3101 -1.1758 6.1469 0
M  V30 25 Pb -1.9723 -2.3215 5.6425 0
M  V30 26 Pd -0.5921 2.1650 -5.3062 0
M  V30 27 Pb 0.3134 2.3022 -5.7068 0
M  V30 28 Pb -1.5025 2.0740 -4.8503 0
M  V30 29 Pb -0.6475 1.2237 -5.6535 0
M  V30 30 Pb -0.5323 3.1085 -5.0118 0
M  V30 31 Pd -0.7216 -5.4107 -4.1648 0
M  V30 32 Pb 0.2288 -5.6722 -4.4069 0
M  V30 33 Pb -0.6154 -5.9275 -3.3209 0
M  V30 34 Pb -1.6588 -5.1896 -3.8998 0
M  V30 35 Pb -0.7763 -4.7585 -4.9223 0
M  V30 36 Pd -4.3864 3.4897 -0.7401 0
M  V30 37 Pb -4.1874 3.0291 -1.6309 0
M  V30 38 Pb -4.5189 3.9335 0.1439 0
M  V30 39 Pb -3.8670 4.2843 -1.0221 0
M  V30 40 Pb -4.9395 2.7164 -0.4291 0
M  V30 41 Pd -4.9790 -3.7401 1.8171 0
M  V30 42 Pb -4.8324 -3.5117 2.7962 0
M  V30 43 Pb -5.4973 -2.9000 1.6671 0
M  V30 44 Pb -4.4033 -4.5424 1.9346 0
M  V30 45 Pb -5.0560 -3.9396 0.8419 0
M  V30 46 Ag 3.5997 1.8162 3.9289 0
M  V30 47 Fe 2.2207 0.0651 4.7551 0
M  V30 48 Ag 0.6711 -1.5485 5.5591 0
M  V30 49 Ag -2.4222 5.4256 4.8828 0
M  V30 50 Fe -3.4946 4.8485 2.8449 0
M  V30 51 Ag -4.5700 4.2748 0.8077 0
M  V30 52 Ag 4.0126 -5.0948 -1.7526 0
M  V30 53 Fe 1.7780 -5.8482 -1.7415 0
M  V30 54 Ag -0.3655 -6.1720 -2.6678 0
M  V30 55 Ag 5.6963 -3.9986 -4.5606 0
M  V30 56 Fe 5.9594 -1.7772 -5.2846 0
M  V30 57 Ag 5.5708 0.5304 -5.0617 0
M  V30 58 Ag 3.4876 1.6719 -2.5265 0
M  V30 59 Fe 3.0926 2.3787 -0.2915 0
M  V30 60 Ag 2.6895 3.0860 1.9420 0
M  V30 61 Ag -2.3556 -5.0491 -3.6646 0
M  V30 62 Fe -3.7703 -4.5571 -1.8238 0
M  V30 63 Ag -5.0640 -4.0668 0.1044 0
M  V30 64 Ag -1.9350 4.1593 6.9032 0
M  V30 65 Fe -1.8154 1.7907 6.7468 0
M  V30 66 Ag -1.5929 -0.5607 6.4792 0
M  V30 67 Ag -0.5585 3.7902 -4.7326 0
M  V30 68 Fe -1.8293 4.7772 -3.0202 0
M  V30 69 Ag -3.4309 4.8085 -1.3013 0
M  V30 70 Ag 0.1630 5.4563 7.2064 0
M  V30 71 Fe 2.3499 4.7679 6.6902 0
M  V30 72 Ag 3.8606 3.9000 5.1134 0
M  V30 73 Ag -0.6570 -3.5918 5.0633 0
M  V30 74 Fe -2.0154 -4.7592 3.5331 0
M  V30 75 Ag -3.8671 -5.0246 2.1016 0
M  V30 76 Ag -0.6959 0.5274 -5.9411 0
M  V30 77 Fe -0.7537 -1.8402 -5.7150 0
M  V30 78 Ag -0.8050 -4.2010 -5.4258 0
M  V30 79 Ag -5.3693 2.1620 -0.1626 0
M  V30 80 Fe -5.6336 -0.0436 0.6760 0
M  V30 81 Ag -5.8469 -2.2578 1.5067 0
M  V30 82 Ba 0.0730 6.1374 4.9295 0
M  V30 83 Ga 1.2846 5.5865 4.2419 0
M  V30 84 Ba 2.5006 5.0628 3.5411 0
M  V30 85 Ba 5.5491 -3.0263 -2.3919 0
M  V30 86 Ga 5.4125 -1.5519 -2.6140 0
M  V30 87 Ba 5.3328 -0.0646 -2.7655 0
M  V30 88 Ba -2.7070 -2.5204 5.5663 0
M  V30 89 Ga -3.6765 -2.9364 4.5082 0
M  V30 90 Ba -4.7333 -3.3588 3.5400 0
M  V30 91 Ba -2.2037 1.9906 -4.5396 0
M  V30 92 Ga -3.0681 2.3790 -3.3763 0
M  V30 93 Ba -4.0734 2.6588 -2.2982 0
M  V30 94 Ba 3.8349 -5.6206 -4.0218 0
M  V30 95 Ga 2.3688 -5.7413 -4.2672 0
M  V30 96 Ba 0.9241 -5.9410 -4.5779 0
M  V30 97 Ba 3.7701 2.1299 -5.0294 0
M  V30 98 Ga 2.3797 2.3057 -5.4915 0
M  V30 99 Ba 0.9934 2.4884 -5.9633 0
M  V30 END ATOM
M  V30 BEGIN BOND
M  V30 1 1 1 2
M  V30 2 1 1 3
M  V30 3 1 1 4
M  V30 4 1 1 5
M  V30 5 1 6 7
M  V30 6 1 6 8
M  V30 7 1 6 9
M  V30 8 1 6 10
M  V30 9 1 11 12
M  V30 10 1 11 13
M  V30 11 1 11 14
M  V30 12 1 11 15
M  V30 13 1 16 17
M  V30 14 1 16 18
M  V30 15 1 16 19
M  V30 16 1 16 20
M  V30 17 1 21 22
M  V30 18 1 21 23
M  V30 19 1 21 24
M  V30 20 1 21 25
M  V30 21 1 26 27
M  V30 22 1 26 28
M  V30 23 1 26 29
M  V30 24 1 26 30
M  V30 25 1 31 32
M  V30 26 1 31 33
M  V30 27 1 31 34
M  V30 28 1 31 35
M  V30 29 1 36 37
M  V30 30 1 36 38
M  V30 31 1 36 39
M  V30 32 1 36 40
M  V30 33 1 41 42
M  V30 34 1 41 43
M  V30 35 1 41 44
M  V30 36 1 41 45
M  V30 37 1 46 47
M  V30 38 1 47 48
M  V30 39 1 49 50
M  V30 40 1 50 51
M  V30 41 1 52 53
M  V30 42 1 53 54
M  V30 43 1 55 56
M  V30 44 1 56 57
M  V30 45 1 58 59
M  V30 46 1 59 60
M  V30 47 1 61 62
M  V30 48 1 62 63
M  V30 49 1 64 65
M  V30 50 1 65 66
M  V30 51 1 67 68
M  V30 52 1 68 69
M  V30 53 1 70 71
M  V30 54 1 71 72
M  V30 55 1 73 74
M  V30 56 1 74 75
M  V30 57 1 76 77
M  V30 58 1 77 78
M  V30 59 1 79 80
M  V30 60 1 80 81
M  V30 61 1 82 83
M  V30 62 1 83 84
M  V30 63 1 85 86
M  V30 64 1 86 87
M  V30 65 1 88 89
M  V30 66 1 89 90
M  V30 67 1 91 92
M  V30 68 1 92 93
M  V30 69 1 94 95
M  V30 70 1 95 96
M  V30 71 1 97 98
M  V30 72 1 98 99
M  V30 73 1 2 64
M  V30 74 1 3 49
M  V30 75 1 4 82
M  V30 76 1 5 70
M  V30 77 1 7 55
M  V30 78 1 8 94
M  V30 79 1 9 52
M  V30 80 1 10 85
M  V30 81 1 12 57
M  V30 82 1 13 58
M  V30 83 1 14 87
M  V30 84 1 15 97
M  V30 85 1 17 60
M  V30 86 1 18 84
M  V30 87 1 19 72
M  V30 88 1 20 46
M  V30 89 1 22 73
M  V30 90 1 23 48
M  V30 91 1 24 66
M  V30 92 1 25 88
M  V30 93 1 27 99
M  V30 94 1 28 91
M  V30 95 1 29 76
M  V30 96 1 30 67
M  V30 97 1 32 96
M  V30 98 1 33 54
M  V30 99 1 34 61
M  V30 100 1 35 78
M  V30 101 1 37 93
M  V30 102 1 38 51
M  V30 103 1 39 69
M  V30 104 1 40 79
M  V30 105 1 42 90
M  V30 106 1 43 81
M  V30 107 1 44 75
M  V30 108 1 45 63
M  V30 END BOND
M  V30 END CTAB
M  END

$$$$
