
     RDKit          3D

  0  0  0  0  0  0  0  0  0  0999 V3000
M  V30 BEGIN CTAB
M  V30 COUNTS 99 108 0 0 0
M  V30 BEGIN ATOM
M  V30 1 Pd 3.4188 -2.8809 -2.3992 0
M  V30 2 Pb 3.0267 -2.7764 -3.3141 0
M  V30 3 Pb 2.9370 -3.7578 -2.3150 0
M  V30 4 Pb 3.9132 -2.0200 -2.5217 0
M  V30 5 Pb 3.8570 -2.9584 -1.5004 0
M  V30 6 Pd -3.3244 -3.4436 4.8930 0
M  V30 7 Pb -3.5418 -2.5634 5.3176 0
M  V30 8 Pb -3.0668 -4.3205 4.4602 0
M  V30 9 Pb -2.7238 -3.6529 5.6628 0
M  V30 10 Pb -3.8454 -3.2304 4.0702 0
M  V30 11 Pd -5.1901 2.6973 -2.6791 0
M  V30 12 Pb -4.8037 2.9346 -3.5917 0
M  V30 13 Pb -5.4575 2.4220 -1.7582 0
M  V30 14 Pb -4.8453 3.5323 -2.2547 0
M  V30 15 Pb -5.5445 1.8507 -3.0596 0
M  V30 16 Pd 0.6903 5.8577 0.8253 0
M  V30 17 Pb -0.2975 5.9672 0.7477 0
M  V30 18 Pb 0.7974 6.8131 0.5639 0
M  V30 19 Pb 0.5865 4.8737 0.9805 0
M  V30 20 Pb 1.6911 5.7367 0.7356 0
M  V30 21 Pd -1.6635 1.4549 3.9004 0
M  V30 22 Pb -2.2128 1.1149 4.6633 0
M  V30 23 Pb -2.5124 1.5288 3.3748 0
M  V30 24 Pb -1.1151 1.7391 3.1128 0
M  V30 25 Pb -0.8125 1.3475 4.4187 0
M  V30 26 Pd 4.1594 4.9487 -3.3931 0
M  V30 27 Pb 3.9020 5.9074 -3.4794 0
M  V30 28 Pb 3.8771 4.7724 -4.3347 0
M  V30 29 Pb 4.4658 4.0009 -3.2995 0
M  V30 30 Pb 4.2748 5.0928 -2.3984 0
M  V30 31 Pd -1.3299 1.0340 -6.7764 0
M  V30 32 Pb -0.6569 0.3030 -6.8775 0
M  V30 33 Pb -0.5921 1.7061 -6.8649 0
M  V30 34 Pb -2.0489 0.3504 -6.7249 0
M  V30 35 Pb -2.0161 1.7504 -6.5463 0
M  V30 36 Pd 3.7437 -3.4535 5.3283 0
M  V30 37 Pb 3.5998 -2.4865 5.5377 0
M  V30 38 Pb 3.7667 -4.4063 5.0367 0
M  V30 39 Pb 3.0852 -3.6772 6.0438 0
M  V30 40 Pb 4.3033 -3.2413 4.5280 0
M  V30 41 Pd -0.4614 -6.1463 0.4631 0
M  V30 42 Pb -1.0222 -6.2221 1.3023 0
M  V30 43 Pb 0.1074 -6.0823 -0.3599 0
M  V30 44 Pb 0.2991 -6.5724 0.9494 0
M  V30 45 Pb -1.2261 -5.6697 0.0362 0
M  V30 46 Ag 2.7509 -2.6814 -4.0060 0
M  V30 47 Fe 1.3175 -1.5037 -5.4888 0
M  V30 48 Ag -0.1552 -0.2528 -6.8694 0
M  V30 49 Ag -0.1546 1.2513 4.7703 0
M  V30 50 Fe 1.6620 -0.1976 5.2689 0
M  V30 51 Ag 3.3905 -1.7784 5.6701 0
M  V30 52 Ag 0.9642 7.4333 0.1946 0
M  V30 53 Fe 2.3013 7.5774 -1.7390 0
M  V30 54 Ag 3.6667 6.6068 -3.3957 0
M  V30 55 Ag -5.6822 1.2219 -3.4232 0
M  V30 56 Fe -4.4483 0.1440 -5.1124 0
M  V30 57 Ag -2.6383 -0.0790 -6.6001 0
M  V30 58 Ag -4.0953 -3.1717 3.3714 0
M  V30 59 Fe -3.2642 -4.0593 1.3442 0
M  V30 60 Ag -1.8365 -5.2669 -0.1021 0
M  V30 61 Ag -4.6077 4.1138 -1.8476 0
M  V30 62 Fe -2.8559 5.1341 -0.6148 0
M  V30 63 Ag -1.0207 6.0493 0.5782 0
M  V30 64 Ag -2.2057 -3.7957 6.1833 0
M  V30 65 Fe 0.1414 -3.8598 6.5203 0
M  V30 66 Ag 2.5130 -3.8203 6.5030 0
M  V30 67 Ag 4.3066 -1.3886 -2.6190 0
M  V30 68 Fe 4.4671 0.9621 -2.9207 0
M  V30 69 Ag 4.7314 3.3029 -3.2263 0
M  V30 70 Ag 4.2402 -2.9459 -0.8520 0
M  V30 71 Fe 4.4537 -3.0400 1.5136 0
M  V30 72 Ag 4.6651 -3.1397 3.8792 0
M  V30 73 Ag 3.6979 -5.0787 4.7206 0
M  V30 74 Fe 2.3767 -6.1394 3.0623 0
M  V30 75 Ag 0.8640 -6.8238 1.3699 0
M  V30 76 Ag 3.5666 4.6142 -4.9978 0
M  V30 77 Fe 1.7973 3.4143 -6.0344 0
M  V30 78 Ag -0.0096 2.1739 -6.9520 0
M  V30 79 Ag -5.5596 2.2404 -1.0398 0
M  V30 80 Fe -4.4124 1.8843 1.0087 0
M  V30 81 Ag -3.1642 1.5535 3.0018 0
M  V30 82 Ba -3.6635 -1.9049 5.6582 0
M  V30 83 Ga -3.1719 -0.5300 5.4439 0
M  V30 84 Ba -2.6586 0.8312 5.1952 0
M  V30 85 Ba 0.5350 4.1248 1.0200 0
M  V30 86 Ga -0.1020 3.0566 1.8157 0
M  V30 87 Ba -0.6768 1.8951 2.5234 0
M  V30 88 Ba -2.8879 -4.9955 4.1580 0
M  V30 89 Ga -2.1445 -5.5933 3.0148 0
M  V30 90 Ba -1.4433 -6.3305 1.9278 0
M  V30 91 Ba -4.5111 3.1199 -4.2783 0
M  V30 92 Ga -3.5077 2.6497 -5.2867 0
M  V30 93 Ba -2.5386 2.2858 -6.3698 0
M  V30 94 Ba 2.4417 5.6537 0.6293 0
M  V30 95 Ga 3.3627 5.4228 -0.5213 0
M  V30 96 Ba 4.3180 5.1927 -1.6439 0
M  V30 97 Ba 2.5790 -4.4212 -2.3370 0
M  V30 98 Ga 1.5594 -5.2056 -1.6071 0
M  V30 99 Ba 0.5544 -6.0806 -0.9650 0
M  V30 END ATOM
M  V30 BEGIN BOND
M  V30 1 1 1 2
M  V30 2 1 1 3
M  V30 3 1 1 4
M  V30 4 1 1 5
M  V30 5 1 6 7
M  V30 6 1 6 8
M  V30 7 1 6 9
M  V30 8 1 6 10
M  V30 9 1 11 12
M  V30 10 1 11 13
M  V30 11 1 11 14
M  V30 12 1 11 15
M  V30 13 1 16 17
M  V30 14 1 16 18
M  V30 15 1 16 19
M  V30 16 1 16 20
M  V30 17 1 21 22
M  V30 18 1 21 23
M  V30 19 1 21 24
M  V30 20 1 21 25
M  V30 21 1 26 27
M  V30 22 1 26 28
M  V30 23 1 26 29
M  V30 24 1 26 30
M  V30 25 1 31 32
M  V30 26 1 31 33
M  V30 27 1 31 34
M  V30 28 1 31 35
M  V30 29 1 36 37
M  V30 30 1 36 38
M  V30 31 1 36 39
M  V30 32 1 36 40
M  V30 33 1 41 42
M  V30 34 1 41 43
M  V30 35 1 41 44
M  V30 36 1 41 45
M  V30 37 1 46 47
M  V30 38 1 47 48
M  V30 39 1 49 50
M  V30 40 1 50 51
M  V30 41 1 52 53
M  V30 42 1 53 54
M  V30 43 1 55 56
M  V30 44 1 56 57
M  V30 45 1 58 59
M  V30 46 1 59 60
M  V30 47 1 61 62
M  V30 48 1 62 63
M  V30 49 1 64 65
M  V30 50 1 65 66
M  V30 51 1 67 68
M  V30 52 1 68 69
M  V30 53 1 70 71
M  V30 54 1 71 72
M  V30 55 1 73 74
M  V30 56 1 74 75
M  V30 57 1 76 77
M  V30 58 1 77 78
M  V30 59 1 79 80
M  V30 60 1 80 81
M  V30 61 1 82 83
M  V30 62 1 83 84
M  V30 63 1 85 86
M  V30 64 1 86 87
M  V30 65 1 88 89
M  V30 66 1 89 90
M  V30 67 1 91 92
M  V30 68 1 92 93
M  V30 69 1 94 95
M  V30 70 1 95 96
M  V30 71 1 97 98
M  V30 72 1 98 99
M  V30 73 1 2 46
M  V30 74 1 3 97
M  V30 75 1 4 67
M  V30 76 1 5 70
M  V30 77 1 7 82
M  V30 78 1 8 88
M  V30 79 1 9 64
M  V30 80 1 10 58
M  V30 81 1 12 91
M  V30 82 1 13 79
M  V30 83 1 14 61
M  V30 84 1 15 55
M  V30 85 1 17 63
M  V30 86 1 18 52
M  V30 87 1 19 85
M  V30 88 1 20 94
M  V30 89 1 22 84
M  V30 90 1 23 81
M  V30 91 1 24 87
M  V30 92 1 25 49
M  V30 93 1 27 54
M  V30 94 1 28 76
M  V30 95 1 29 69
M  V30 96 1 30 96
M  V30 97 1 32 48
M  V30 98 1 33 78
M  V30 99 1 34 57
M  V30 100 1 35 93
M  V30 101 1 37 51
M  V30 102 1 38 73
M  V30 103 1 39 66
M  V30 104 1 40 72
M  V30 105 1 42 90
M  V30 106 1 43 99
M  V30 107 1 44 75
M  V30 108 1 45 60
M  V30 END BOND
M  V30 END CTAB
M  END

$$$$
