
     RDKit          3D

  0  0  0  0  0  0  0  0  0  0999 V3000
M  V30 BEGIN CTAB
M  V30 COUNTS 99 108 0 0 0
M  V30 BEGIN ATOM
M  V30 1 Pd -1.9217 -2.9813 -0.8285 0
M  V30 2 Pb -1.7369 -2.9697 0.1715 0
M  V30 3 Pb -2.8964 -2.9998 -0.6381 0
M  V30 4 Pb -2.1410 -2.9013 -1.7972 0
M  V30 5 Pb -0.9472 -2.9343 -1.0565 0
M  V30 6 Pd -2.6186 0.2191 3.9789 0
M  V30 7 Pb -2.9134 1.1572 4.1472 0
M  V30 8 Pb -3.5202 0.0050 3.6216 0
M  V30 9 Pb -1.7385 0.4135 4.4101 0
M  V30 10 Pb -2.2848 -0.6877 3.6645 0
M  V30 11 Pd 3.6368 -3.8137 5.6631 0
M  V30 12 Pb 3.1039 -4.6507 5.5367 0
M  V30 13 Pb 4.1688 -2.9682 5.6529 0
M  V30 14 Pb 4.4708 -4.3690 5.6523 0
M  V30 15 Pb 2.8072 -3.3031 5.4215 0
M  V30 16 Pd -0.7026 3.7395 -6.7789 0
M  V30 17 Pb -1.2988 3.0109 -7.1363 0
M  V30 18 Pb 0.0338 3.0872 -6.5960 0
M  V30 19 Pb -1.4464 4.3924 -6.8957 0
M  V30 20 Pb -0.2777 4.3812 -6.1590 0
M  V30 21 Pd 2.7777 0.4941 2.7432 0
M  V30 22 Pb 3.4490 0.8869 2.1177 0
M  V30 23 Pb 3.5275 0.1950 3.3380 0
M  V30 24 Pb 3.0856 -0.0450 1.9553 0
M  V30 25 Pb 2.2055 0.5935 3.5545 0
M  V30 26 Pd 3.0830 2.0016 -2.6279 0
M  V30 27 Pb 3.1436 1.0056 -2.6669 0
M  V30 28 Pb 2.8728 2.9601 -2.4276 0
M  V30 29 Pb 2.6496 1.9815 -3.5361 0
M  V30 30 Pb 3.6110 1.9948 -1.7792 0
M  V30 31 Pd 2.2542 -4.5656 1.3497 0
M  V30 32 Pb 1.9720 -5.2663 2.0055 0
M  V30 33 Pb 2.9979 -5.1702 1.0570 0
M  V30 34 Pb 1.6614 -3.9263 1.8468 0
M  V30 35 Pb 2.6121 -3.8149 0.7962 0
M  V30 36 Pd -4.3869 0.9758 -3.9521 0
M  V30 37 Pb -4.0859 1.0179 -4.9213 0
M  V30 38 Pb -4.8461 1.8530 -4.0644 0
M  V30 39 Pb -3.9652 0.0666 -3.9095 0
M  V30 40 Pb -4.6022 1.0099 -2.9712 0
M  V30 41 Pd -2.5427 3.9900 0.3814 0
M  V30 42 Pb -3.2688 3.3349 0.1329 0
M  V30 43 Pb -2.2077 4.1329 -0.5455 0
M  V30 44 Pb -2.8230 3.9425 1.3441 0
M  V30 45 Pb -1.7482 4.5705 0.5494 0
M  V30 46 Ag -2.0789 4.7733 -6.8334 0
M  V30 47 Fe -3.9790 4.1195 -5.6092 0
M  V30 48 Ag -5.0783 2.5270 -4.2698 0
M  V30 49 Ag -0.2327 -2.8678 -1.2815 0
M  V30 50 Fe 1.5054 -1.3997 -1.9666 0
M  V30 51 Ag 3.0781 0.2617 -2.6073 0
M  V30 52 Ag 4.9905 -4.8228 5.3666 0
M  V30 53 Fe 4.8584 -5.5959 3.1384 0
M  V30 54 Ag 3.6297 -5.5629 1.1212 0
M  V30 55 Ag -3.5902 -2.8983 -0.4048 0
M  V30 56 Fe -4.4007 -1.6327 1.4044 0
M  V30 57 Ag -4.1289 -0.2482 3.2866 0
M  V30 58 Ag 2.6617 3.6051 -2.1019 0
M  V30 59 Fe 0.8901 4.4852 -0.7825 0
M  V30 60 Ag -1.0976 4.9285 0.4441 0
M  V30 61 Ag -0.1238 4.7612 -5.5444 0
M  V30 62 Fe -0.9316 4.6116 -3.3212 0
M  V30 63 Ag -1.8152 4.3812 -1.1336 0
M  V30 64 Ba 3.2773 -0.4334 1.3391 0
M  V30 65 Ga 3.1025 -1.8244 0.8751 0
M  V30 66 Ba 2.9116 -3.2243 0.4455 0
M  V30 67 Ba 4.5540 -2.3308 5.5699 0
M  V30 68 Ga 4.3286 -1.1573 4.7022 0
M  V30 69 Ba 4.0714 -0.0013 3.8201 0
M  V30 70 Ba -4.7643 1.0982 -2.2385 0
M  V30 71 Ga -4.2606 1.9641 -1.1424 0
M  V30 72 Ba -3.7953 2.8079 -0.0128 0
M  V30 73 Ba 3.9530 1.1949 1.6588 0
M  V30 74 Ga 3.9803 1.5898 0.2398 0
M  V30 75 Ba 4.0523 2.0002 -1.1732 0
M  V30 76 Ba -1.6181 -2.9737 0.9293 0
M  V30 77 Ga -1.8411 -2.1229 2.1395 0
M  V30 78 Ba -2.0137 -1.3596 3.4145 0
M  V30 79 Ba -2.3316 -2.7988 -2.5118 0
M  V30 80 Ga -2.9985 -1.6921 -3.2248 0
M  V30 81 Ba -3.6611 -0.6183 -3.9899 0
M  V30 82 Ba -1.8057 2.4686 -7.2972 0
M  V30 83 Ga -2.8212 1.7564 -6.4662 0
M  V30 84 Ba -3.8413 1.0377 -5.6468 0
M  V30 85 Ba 2.6989 -5.2500 5.3373 0
M  V30 86 Ga 2.2093 -5.5786 3.9846 0
M  V30 87 Ba 1.8124 -5.7321 2.5717 0
M  V30 88 Ba 0.5873 2.6022 -6.4471 0
M  V30 89 Ga 1.4705 2.2850 -5.3022 0
M  V30 90 Ba 2.4156 1.8607 -4.2456 0
M  V30 91 Ba -1.0981 0.5532 4.7733 0
M  V30 92 Ga 0.3381 0.6134 4.4523 0
M  V30 93 Ba 1.7809 0.6813 4.1636 0
M  V30 94 Ba -3.1162 1.8762 4.1865 0
M  V30 95 Ga -3.0862 2.9215 3.1443 0
M  V30 96 Ba -3.0361 3.9302 2.0670 0
M  V30 97 Ba 2.1977 -2.9819 5.1124 0
M  V30 98 Ga 1.6811 -3.1675 3.7335 0
M  V30 99 Ba 1.3056 -3.4671 2.3292 0
M  V30 END ATOM
M  V30 BEGIN BOND
M  V30 1 1 1 2
M  V30 2 1 1 3
M  V30 3 1 1 4
M  V30 4 1 1 5
M  V30 5 1 6 7
M  V30 6 1 6 8
M  V30 7 1 6 9
M  V30 8 1 6 10
M  V30 9 1 11 12
M  V30 10 1 11 13
M  V30 11 1 11 14
M  V30 12 1 11 15
M  V30 13 1 16 17
M  V30 14 1 16 18
M  V30 15 1 16 19
M  V30 16 1 16 20
M  V30 17 1 21 22
M  V30 18 1 21 23
M  V30 19 1 21 24
M  V30 20 1 21 25
M  V30 21 1 26 27
M  V30 22 1 26 28
M  V30 23 1 26 29
M  V30 24 1 26 30
M  V30 25 1 31 32
M  V30 26 1 31 33
M  V30 27 1 31 34
M  V30 28 1 31 35
M  V30 29 1 36 37
M  V30 30 1 36 38
M  V30 31 1 36 39
M  V30 32 1 36 40
M  V30 33 1 41 42
M  V30 34 1 41 43
M  V30 35 1 41 44
M  V30 36 1 41 45
M  V30 37 1 46 47
M  V30 38 1 47 48
M  V30 39 1 49 50
M  V30 40 1 50 51
M  V30 41 1 52 53
M  V30 42 1 53 54
M  V30 43 1 55 56
M  V30 44 1 56 57
M  V30 45 1 58 59
M  V30 46 1 59 60
M  V30 47 1 61 62
M  V30 48 1 62 63
M  V30 49 1 64 65
M  V30 50 1 65 66
M  V30 51 1 67 68
M  V30 52 1 68 69
M  V30 53 1 70 71
M  V30 54 1 71 72
M  V30 55 1 73 74
M  V30 56 1 74 75
M  V30 57 1 76 77
M  V30 58 1 77 78
M  V30 59 1 79 80
M  V30 60 1 80 81
M  V30 61 1 82 83
M  V30 62 1 83 84
M  V30 63 1 85 86
M  V30 64 1 86 87
M  V30 65 1 88 89
M  V30 66 1 89 90
M  V30 67 1 91 92
M  V30 68 1 92 93
M  V30 69 1 94 95
M  V30 70 1 95 96
M  V30 71 1 97 98
M  V30 72 1 98 99
M  V30 73 1 2 76
M  V30 74 1 3 55
M  V30 75 1 4 79
M  V30 76 1 5 49
M  V30 77 1 7 94
M  V30 78 1 8 57
M  V30 79 1 9 91
M  V30 80 1 10 78
M  V30 81 1 12 85
M  V30 82 1 13 67
M  V30 83 1 14 52
M  V30 84 1 15 97
M  V30 85 1 17 82
M  V30 86 1 18 88
M  V30 87 1 19 46
M  V30 88 1 20 61
M  V30 89 1 22 73
M  V30 90 1 23 69
M  V30 91 1 24 64
M  V30 92 1 25 93
M  V30 93 1 27 51
M  V30 94 1 28 58
M  V30 95 1 29 90
M  V30 96 1 30 75
M  V30 97 1 32 87
M  V30 98 1 33 54
M  V30 99 1 34 99
M  V30 100 1 35 66
M  V30 101 1 37 84
M  V30 102 1 38 48
M  V30 103 1 39 81
M  V30 104 1 40 70
M  V30 105 1 42 72
M  V30 106 1 43 63
M  V30 107 1 44 96
M  V30 108 1 45 60
M  V30 END BOND
M  V30 END CTAB
M  END

$$$$
