
     RDKit          3D

  0  0  0  0  0  0  0  0  0  0999 V3000
M  V30 BEGIN CTAB
M  V30 COUNTS 99 108 0 0 0
M  V30 BEGIN ATOM
M  V30 1 Pd 6.3551 1.5909 -2.5876 0
M  V30 2 Pb 6.8435 0.7201 -2.5154 0
M  V30 3 Pb 6.1882 1.4483 -3.5633 0
M  V30 4 Pb 6.4900 1.7276 -1.5974 0
M  V30 5 Pb 5.8120 2.4274 -2.5983 0
M  V30 6 Pd -6.4329 -3.0848 6.3193 0
M  V30 7 Pb -5.5682 -3.4877 6.6102 0
M  V30 8 Pb -7.1849 -2.5587 5.9320 0
M  V30 9 Pb -6.4380 -3.6266 5.4771 0
M  V30 10 Pb -6.3053 -2.4051 7.0416 0
M  V30 11 Pd -1.1376 0.8980 5.9228 0
M  V30 12 Pb -1.0683 -0.0425 6.2529 0
M  V30 13 Pb -0.6219 0.6501 5.1049 0
M  V30 14 Pb -1.7881 1.0528 6.6666 0
M  V30 15 Pb -1.2941 1.8071 5.5363 0
M  V30 16 Pd 3.5461 1.1511 2.2839 0
M  V30 17 Pb 2.6296 0.8259 2.5044 0
M  V30 18 Pb 4.4612 1.4341 1.9730 0
M  V30 19 Pb 3.1934 2.0229 1.9520 0
M  V30 20 Pb 3.9150 0.2539 2.5200 0
M  V30 21 Pd 4.5091 -2.9793 -0.9259 0
M  V30 22 Pb 4.3836 -3.2200 -1.8854 0
M  V30 23 Pb 4.6430 -2.7817 0.0478 0
M  V30 24 Pb 5.4517 -2.7141 -1.1380 0
M  V30 25 Pb 3.5448 -3.2011 -0.7588 0
M  V30 26 Pd -2.7946 3.9257 -0.7408 0
M  V30 27 Pb -2.6660 4.1578 0.2248 0
M  V30 28 Pb -2.8919 3.6587 -1.6945 0
M  V30 29 Pb -3.7763 3.7777 -0.6142 0
M  V30 30 Pb -1.8174 4.0597 -0.9277 0
M  V30 31 Pd -6.2081 -0.3991 -0.1592 0
M  V30 32 Pb -6.8403 -0.2873 0.6064 0
M  V30 33 Pb -6.1547 -1.3637 0.1087 0
M  V30 34 Pb -5.6001 -0.5355 -0.9462 0
M  V30 35 Pb -6.2616 0.5850 -0.3388 0
M  V30 36 Pd 1.9059 1.6090 -5.8086 0
M  V30 37 Pb 0.9246 1.7634 -5.7358 0
M  V30 38 Pb 2.8936 1.4656 -5.8965 0
M  V30 39 Pb 2.0171 2.2728 -5.0663 0
M  V30 40 Pb 1.7151 0.8784 -6.4607 0
M  V30 41 Pd 0.3125 -2.7099 -4.1248 0
M  V30 42 Pb 0.3670 -2.9742 -3.1588 0
M  V30 43 Pb 0.3171 -2.4340 -5.0875 0
M  V30 44 Pb 1.2329 -3.0684 -4.2609 0
M  V30 45 Pb -0.6077 -2.3291 -3.9995 0
M  V30 46 Ag -6.4052 -3.9021 4.7782 0
M  V30 47 Fe -6.2752 -3.1442 2.5277 0
M  V30 48 Ag -6.1559 -2.0496 0.4195 0
M  V30 49 Ag -4.8559 -3.6276 6.7850 0
M  V30 50 Fe -2.8329 -2.3920 6.7301 0
M  V30 51 Ag -1.1380 -0.7523 6.4800 0
M  V30 52 Ag -6.0811 -1.8429 7.4847 0
M  V30 53 Fe -4.2918 -0.2819 7.5449 0
M  V30 54 Ag -2.3472 1.0283 7.1662 0
M  V30 55 Ag -5.1731 -0.6331 -1.5596 0
M  V30 56 Fe -3.2077 -1.3513 -2.6915 0
M  V30 57 Ag -1.2956 -2.0282 -3.9347 0
M  V30 58 Ag -1.0992 4.1378 -1.1440 0
M  V30 59 Fe 0.5344 3.5028 -2.7533 0
M  V30 60 Ag 1.9919 2.7267 -4.4664 0
M  V30 61 Ag 5.3449 2.9821 -2.4333 0
M  V30 62 Fe 3.9652 3.2586 -0.5376 0
M  V30 63 Ag 3.0541 2.6312 1.5479 0
M  V30 64 Ag -2.8880 3.4342 -2.4047 0
M  V30 65 Fe -1.4513 2.6556 -4.1194 0
M  V30 66 Ag 0.1979 1.9036 -5.6447 0
M  V30 67 Ag -7.6387 -2.1235 5.5307 0
M  V30 68 Fe -7.6473 -1.1092 3.3872 0
M  V30 69 Ag -7.3041 -0.2734 1.1943 0
M  V30 70 Ag -1.4420 2.4533 5.1850 0
M  V30 71 Fe -1.9943 3.4501 3.1001 0
M  V30 72 Ag -2.5421 4.3036 0.9514 0
M  V30 73 Ba 4.2004 -0.4278 2.6395 0
M  V30 74 Ga 4.4739 -1.5514 1.7225 0
M  V30 75 Ba 4.7380 -2.6597 0.7842 0
M  V30 76 Ba 6.6027 1.8418 -0.8560 0
M  V30 77 Ga 5.8469 1.7283 0.4176 0
M  V30 78 Ba 5.1471 1.6368 1.7246 0
M  V30 79 Ba 6.0494 1.3415 -4.2926 0
M  V30 80 Ga 4.8347 1.3510 -5.1316 0
M  V30 81 Ba 3.6318 1.3561 -5.9876 0
M  V30 82 Ba -0.3329 0.4119 4.4567 0
M  V30 83 Ga 0.8506 0.5266 3.5883 0
M  V30 84 Ba 1.9513 0.5309 2.6103 0
M  V30 85 Ba 7.1804 0.0580 -2.4029 0
M  V30 86 Ga 6.6869 -1.2319 -1.8777 0
M  V30 87 Ba 6.1411 -2.4984 -1.3473 0
M  V30 88 Ba 2.8122 -3.3491 -0.6614 0
M  V30 89 Ga 1.6223 -3.2676 -1.5376 0
M  V30 90 Ba 0.4514 -3.1759 -2.4381 0
M  V30 91 Ba 4.2798 -3.4183 -2.5983 0
M  V30 92 Ga 3.1171 -3.3768 -3.4981 0
M  V30 93 Ba 1.9299 -3.3169 -4.3642 0
M  V30 94 Ba -4.5179 3.6633 -0.5811 0
M  V30 95 Ga -5.4063 2.4863 -0.4952 0
M  V30 96 Ba -6.3230 1.3310 -0.4112 0
M  V30 97 Ba 1.4941 0.2952 -6.8737 0
M  V30 98 Ga 0.9330 -0.9848 -6.4028 0
M  V30 99 Ba 0.3890 -2.2178 -5.8036 0
M  V30 END ATOM
M  V30 BEGIN BOND
M  V30 1 1 1 2
M  V30 2 1 1 3
M  V30 3 1 1 4
M  V30 4 1 1 5
M  V30 5 1 6 7
M  V30 6 1 6 8
M  V30 7 1 6 9
M  V30 8 1 6 10
M  V30 9 1 11 12
M  V30 10 1 11 13
M  V30 11 1 11 14
M  V30 12 1 11 15
M  V30 13 1 16 17
M  V30 14 1 16 18
M  V30 15 1 16 19
M  V30 16 1 16 20
M  V30 17 1 21 22
M  V30 18 1 21 23
M  V30 19 1 21 24
M  V30 20 1 21 25
M  V30 21 1 26 27
M  V30 22 1 26 28
M  V30 23 1 26 29
M  V30 24 1 26 30
M  V30 25 1 31 32
M  V30 26 1 31 33
M  V30 27 1 31 34
M  V30 28 1 31 35
M  V30 29 1 36 37
M  V30 30 1 36 38
M  V30 31 1 36 39
M  V30 32 1 36 40
M  V30 33 1 41 42
M  V30 34 1 41 43
M  V30 35 1 41 44
M  V30 36 1 41 45
M  V30 37 1 46 47
M  V30 38 1 47 48
M  V30 39 1 49 50
M  V30 40 1 50 51
M  V30 41 1 52 53
M  V30 42 1 53 54
M  V30 43 1 55 56
M  V30 44 1 56 57
M  V30 45 1 58 59
M  V30 46 1 59 60
M  V30 47 1 61 62
M  V30 48 1 62 63
M  V30 49 1 64 65
M  V30 50 1 65 66
M  V30 51 1 67 68
M  V30 52 1 68 69
M  V30 53 1 70 71
M  V30 54 1 71 72
M  V30 55 1 73 74
M  V30 56 1 74 75
M  V30 57 1 76 77
M  V30 58 1 77 78
M  V30 59 1 79 80
M  V30 60 1 80 81
M  V30 61 1 82 83
M  V30 62 1 83 84
M  V30 63 1 85 86
M  V30 64 1 86 87
M  V30 65 1 88 89
M  V30 66 1 89 90
M  V30 67 1 91 92
M  V30 68 1 92 93
M  V30 69 1 94 95
M  V30 70 1 95 96
M  V30 71 1 97 98
M  V30 72 1 98 99
M  V30 73 1 2 85
M  V30 74 1 3 79
M  V30 75 1 4 76
M  V30 76 1 5 61
M  V30 77 1 7 49
M  V30 78 1 8 67
M  V30 79 1 9 46
M  V30 80 1 10 52
M  V30 81 1 12 51
M  V30 82 1 13 82
M  V30 83 1 14 54
M  V30 84 1 15 70
M  V30 85 1 17 84
M  V30 86 1 18 78
M  V30 87 1 19 63
M  V30 88 1 20 73
M  V30 89 1 22 91
M  V30 90 1 23 75
M  V30 91 1 24 87
M  V30 92 1 25 88
M  V30 93 1 27 72
M  V30 94 1 28 64
M  V30 95 1 29 94
M  V30 96 1 30 58
M  V30 97 1 32 69
M  V30 98 1 33 48
M  V30 99 1 34 55
M  V30 100 1 35 96
M  V30 101 1 37 66
M  V30 102 1 38 81
M  V30 103 1 39 60
M  V30 104 1 40 97
M  V30 105 1 42 90
M  V30 106 1 43 99
M  V30 107 1 44 93
M  V30 108 1 45 57
M  V30 END BOND
M  V30 END CTAB
M  END

$$$$
