
     RDKit          3D

  0  0  0  0  0  0  0  0  0  0999 V3000
M  V30 BEGIN CTAB
M  V30 COUNTS 99 108 0 0 0
M  V30 BEGIN ATOM
M  V30 1 Pd 3.3837 3.3197 -0.1147 0
M  V30 2 Pb 3.4462 3.2166 0.8775 0
M  V30 3 Pb 4.1796 2.7267 -0.1959 0
M  V30 4 Pb 2.6126 3.9538 -0.0047 0
M  V30 5 Pb 3.2980 3.2606 -1.1090 0
M  V30 6 Pd -1.9306 5.3717 -1.7000 0
M  V30 7 Pb -2.7055 5.3437 -2.3225 0
M  V30 8 Pb -1.5816 4.5382 -2.1330 0
M  V30 9 Pb -1.1522 5.4247 -1.0700 0
M  V30 10 Pb -2.4147 6.1063 -1.2231 0
M  V30 11 Pd -4.8478 1.6087 -1.7404 0
M  V30 12 Pb -4.6730 0.7687 -1.2318 0
M  V30 13 Pb -3.9663 1.5333 -2.2135 0
M  V30 14 Pb -5.6455 1.7994 -1.1732 0
M  V30 15 Pb -5.0475 2.4139 -2.2889 0
M  V30 16 Pd -0.9780 1.4927 5.3443 0
M  V30 17 Pb -1.9797 1.6509 5.2351 0
M  V30 18 Pb -1.0678 0.5265 5.0892 0
M  V30 19 Pb -0.8638 2.4335 5.6358 0
M  V30 20 Pb 0.0172 1.4489 5.3067 0
M  V30 21 Pd -1.1259 -4.9511 -2.0275 0
M  V30 22 Pb -1.1473 -4.2238 -2.7119 0
M  V30 23 Pb -1.1035 -5.6623 -1.3268 0
M  V30 24 Pb -1.8072 -4.4568 -1.4928 0
M  V30 25 Pb -0.3994 -5.3980 -2.5501 0
M  V30 26 Pd -4.8950 4.8315 2.4706 0
M  V30 27 Pb -4.3124 5.4134 3.0229 0
M  V30 28 Pb -4.7755 4.0730 3.1454 0
M  V30 29 Pb -5.5480 4.2764 1.9461 0
M  V30 30 Pb -4.8918 5.5744 1.7977 0
M  V30 31 Pd 5.8893 -3.8168 -0.2325 0
M  V30 32 Pb 5.6834 -3.6998 0.7394 0
M  V30 33 Pb 6.0508 -3.8861 -1.2176 0
M  V30 34 Pb 5.5302 -4.7477 -0.1778 0
M  V30 35 Pb 6.2140 -2.8772 -0.2736 0
M  V30 36 Pd 2.8024 -2.6166 -4.4323 0
M  V30 37 Pb 3.7730 -2.8430 -4.3311 0
M  V30 38 Pb 2.5876 -3.5936 -4.3763 0
M  V30 39 Pb 2.9797 -1.6286 -4.4626 0
M  V30 40 Pb 1.8270 -2.4257 -4.5251 0
M  V30 41 Pd 1.7130 -5.3165 2.3874 0
M  V30 42 Pb 1.0430 -4.7432 2.8664 0
M  V30 43 Pb 2.3712 -5.8674 1.8720 0
M  V30 44 Pb 2.4725 -4.7652 2.7304 0
M  V30 45 Pb 0.9762 -5.8868 2.0268 0
M  V30 46 Ag 4.7770 2.2831 -0.2480 0
M  V30 47 Fe 5.6590 0.0844 -0.2852 0
M  V30 48 Ag 6.4150 -2.1609 -0.3087 0
M  V30 49 Ag -1.1349 -0.2065 4.9288 0
M  V30 50 Fe -0.2773 -2.2463 4.0555 0
M  V30 51 Ag 0.5175 -4.3191 3.2006 0
M  V30 52 Ag -4.5531 0.1161 -0.8877 0
M  V30 53 Fe -3.4512 -1.9835 -0.9317 0
M  V30 54 Ag -2.2889 -4.0441 -1.0979 0
M  V30 55 Ag 3.2800 3.0712 -1.8352 0
M  V30 56 Fe 3.1679 1.1561 -3.2409 0
M  V30 57 Ag 3.0494 -0.8775 -4.4689 0
M  V30 58 Ag -0.8535 3.1597 5.7651 0
M  V30 59 Fe -2.1453 4.9046 4.8677 0
M  V30 60 Ag -3.8407 5.7508 3.4789 0
M  V30 61 Ag 3.4718 3.0286 1.6030 0
M  V30 62 Fe 2.2299 2.2741 3.4798 0
M  V30 63 Ag 0.7478 1.5484 5.1855 0
M  V30 64 Ba 5.4925 -3.5986 1.4579 0
M  V30 65 Ga 4.2974 -3.9729 2.2366 0
M  V30 66 Ba 3.0749 -4.3797 2.9540 0
M  V30 67 Ba -2.7321 1.7852 5.1375 0
M  V30 68 Ga -3.6615 2.6762 4.3655 0
M  V30 69 Ba -4.6970 3.5002 3.6569 0
M  V30 70 Ba -2.8824 6.5893 -0.8868 0
M  V30 71 Ga -3.8449 6.4079 0.2217 0
M  V30 72 Ba -4.7854 6.1601 1.3363 0
M  V30 73 Ba 6.1649 -3.8738 -1.9597 0
M  V30 74 Ga 5.3324 -3.4741 -3.1127 0
M  V30 75 Ba 4.4857 -3.0701 -4.2537 0
M  V30 76 Ba -1.4312 3.8716 -2.4487 0
M  V30 77 Ga -2.3021 2.6765 -2.5246 0
M  V30 78 Ba -3.2788 1.5635 -2.5213 0
M  V30 79 Ba -1.0940 -6.1691 -0.7759 0
M  V30 80 Ga -0.3360 -6.2671 0.4836 0
M  V30 81 Ba 0.4444 -6.3240 1.7318 0
M  V30 82 Ba -3.3119 5.2943 -2.7504 0
M  V30 83 Ga -4.2869 4.2029 -2.7969 0
M  V30 84 Ba -5.1473 3.0216 -2.7066 0
M  V30 85 Ba 5.2312 -5.4290 -0.0883 0
M  V30 86 Ga 4.0535 -5.8794 0.6778 0
M  V30 87 Ba 2.8646 -6.2603 1.4640 0
M  V30 88 Ba 0.1673 -5.6816 -2.9521 0
M  V30 89 Ga 1.2972 -5.0311 -3.6457 0
M  V30 90 Ba 2.4034 -4.3204 -4.3183 0
M  V30 91 Ba 2.0757 4.4586 0.1561 0
M  V30 92 Ga 0.7407 4.9299 -0.2722 0
M  V30 93 Ba -0.5857 5.5071 -0.5815 0
M  V30 94 Ba -1.1422 -3.6723 -3.2186 0
M  V30 95 Ga -0.0511 -2.9717 -3.9169 0
M  V30 96 Ba 1.0890 -2.3147 -4.5784 0
M  V30 97 Ba -6.1902 2.0102 -0.7062 0
M  V30 98 Ga -6.1442 2.9333 0.4463 0
M  V30 99 Ba -6.0708 3.8613 1.5935 0
M  V30 END ATOM
M  V30 BEGIN BOND
M  V30 1 1 1 2
M  V30 2 1 1 3
M  V30 3 1 1 4
M  V30 4 1 1 5
M  V30 5 1 6 7
M  V30 6 1 6 8
M  V30 7 1 6 9
M  V30 8 1 6 10
M  V30 9 1 11 12
M  V30 10 1 11 13
M  V30 11 1 11 14
M  V30 12 1 11 15
M  V30 13 1 16 17
M  V30 14 1 16 18
M  V30 15 1 16 19
M  V30 16 1 16 20
M  V30 17 1 21 22
M  V30 18 1 21 23
M  V30 19 1 21 24
M  V30 20 1 21 25
M  V30 21 1 26 27
M  V30 22 1 26 28
M  V30 23 1 26 29
M  V30 24 1 26 30
M  V30 25 1 31 32
M  V30 26 1 31 33
M  V30 27 1 31 34
M  V30 28 1 31 35
M  V30 29 1 36 37
M  V30 30 1 36 38
M  V30 31 1 36 39
M  V30 32 1 36 40
M  V30 33 1 41 42
M  V30 34 1 41 43
M  V30 35 1 41 44
M  V30 36 1 41 45
M  V30 37 1 46 47
M  V30 38 1 47 48
M  V30 39 1 49 50
M  V30 40 1 50 51
M  V30 41 1 52 53
M  V30 42 1 53 54
M  V30 43 1 55 56
M  V30 44 1 56 57
M  V30 45 1 58 59
M  V30 46 1 59 60
M  V30 47 1 61 62
M  V30 48 1 62 63
M  V30 49 1 64 65
M  V30 50 1 65 66
M  V30 51 1 67 68
M  V30 52 1 68 69
M  V30 53 1 70 71
M  V30 54 1 71 72
M  V30 55 1 73 74
M  V30 56 1 74 75
M  V30 57 1 76 77
M  V30 58 1 77 78
M  V30 59 1 79 80
M  V30 60 1 80 81
M  V30 61 1 82 83
M  V30 62 1 83 84
M  V30 63 1 85 86
M  V30 64 1 86 87
M  V30 65 1 88 89
M  V30 66 1 89 90
M  V30 67 1 91 92
M  V30 68 1 92 93
M  V30 69 1 94 95
M  V30 70 1 95 96
M  V30 71 1 97 98
M  V30 72 1 98 99
M  V30 73 1 2 61
M  V30 74 1 3 46
M  V30 75 1 4 91
M  V30 76 1 5 55
M  V30 77 1 7 82
M  V30 78 1 8 76
M  V30 79 1 9 93
M  V30 80 1 10 70
M  V30 81 1 12 52
M  V30 82 1 13 78
M  V30 83 1 14 97
M  V30 84 1 15 84
M  V30 85 1 17 67
M  V30 86 1 18 49
M  V30 87 1 19 58
M  V30 88 1 20 63
M  V30 89 1 22 94
M  V30 90 1 23 79
M  V30 91 1 24 54
M  V30 92 1 25 88
M  V30 93 1 27 60
M  V30 94 1 28 69
M  V30 95 1 29 99
M  V30 96 1 30 72
M  V30 97 1 32 64
M  V30 98 1 33 73
M  V30 99 1 34 85
M  V30 100 1 35 48
M  V30 101 1 37 75
M  V30 102 1 38 90
M  V30 103 1 39 57
M  V30 104 1 40 96
M  V30 105 1 42 51
M  V30 106 1 43 87
M  V30 107 1 44 66
M  V30 108 1 45 81
M  V30 END BOND
M  V30 END CTAB
M  END

$$$$
