
     RDKit          3D

  0  0  0  0  0  0  0  0  0  0999 V3000
M  V30 BEGIN CTAB
M  V30 COUNTS 99 108 0 0 0
M  V30 BEGIN ATOM
M  V30 1 Pd 1.4577 -2.9288 0.3581 0
M  V30 2 Pb 2.2003 -3.3734 0.8616 0
M  V30 3 Pb 1.4636 -2.2201 1.0580 0
M  V30 4 Pb 1.4522 -3.6543 -0.3347 0
M  V30 5 Pb 0.6988 -2.4593 -0.0996 0
M  V30 6 Pd -7.4870 1.8101 4.3166 0
M  V30 7 Pb -7.1668 2.5360 3.7113 0
M  V30 8 Pb -7.7198 1.0623 4.9300 0
M  V30 9 Pb -7.6718 1.1913 3.5523 0
M  V30 10 Pb -7.0847 2.2836 5.0998 0
M  V30 11 Pd 4.1349 4.2866 -0.3932 0
M  V30 12 Pb 3.9820 4.3005 0.5898 0
M  V30 13 Pb 3.3146 4.8394 -0.5422 0
M  V30 14 Pb 4.2675 4.2494 -1.3841 0
M  V30 15 Pb 4.9309 3.6742 -0.2386 0
M  V30 16 Pd 2.2183 0.4981 -6.6501 0
M  V30 17 Pb 2.7155 1.3157 -6.3610 0
M  V30 18 Pb 1.7388 -0.3557 -6.8591 0
M  V30 19 Pb 1.3483 0.9514 -6.4617 0
M  V30 20 Pb 3.0815 0.0335 -6.8354 0
M  V30 21 Pd -3.2202 3.5846 -1.8163 0
M  V30 22 Pb -3.7013 3.9106 -1.0047 0
M  V30 23 Pb -2.5164 4.2863 -1.7036 0
M  V30 24 Pb -2.8013 3.2969 -2.6774 0
M  V30 25 Pb -3.8861 2.8420 -1.8859 0
M  V30 26 Pd 3.4871 -3.9115 -4.7230 0
M  V30 27 Pb 2.7026 -3.7924 -5.3328 0
M  V30 28 Pb 4.2742 -3.9478 -4.1121 0
M  V30 29 Pb 2.9236 -4.3970 -4.0516 0
M  V30 30 Pb 4.0437 -3.3997 -5.3741 0
M  V30 31 Pd 5.9442 -0.9295 1.6846 0
M  V30 32 Pb 5.5811 -1.7925 2.0344 0
M  V30 33 Pb 6.2708 -1.4499 0.8992 0
M  V30 34 Pb 6.2377 -0.0515 1.2666 0
M  V30 35 Pb 5.5960 -0.4203 2.4652 0
M  V30 36 Pd -4.0990 -1.1070 0.9907 0
M  V30 37 Pb -4.4705 -0.5693 0.2291 0
M  V30 38 Pb -3.7312 -1.7011 1.7228 0
M  V30 39 Pb -5.0270 -1.0579 1.3830 0
M  V30 40 Pb -3.2269 -1.1573 0.4897 0
M  V30 41 Pd -2.3774 -1.2637 6.2993 0
M  V30 42 Pb -3.2358 -1.6298 6.6451 0
M  V30 43 Pb -1.5498 -0.8759 5.9060 0
M  V30 44 Pb -2.3659 -1.9669 5.5846 0
M  V30 45 Pb -2.5414 -0.4509 6.8583 0
M  V30 46 Ag -6.8687 3.0712 3.2819 0
M  V30 47 Fe -5.4963 3.6411 1.4319 0
M  V30 48 Ag -4.1148 4.1505 -0.4289 0
M  V30 49 Ag 0.6923 1.2855 -6.3241 0
M  V30 50 Fe -0.8917 2.1864 -4.8019 0
M  V30 51 Ag -2.5292 3.1075 -3.3501 0
M  V30 52 Ag -6.6463 2.4825 5.6744 0
M  V30 53 Fe -4.6901 1.5562 6.6508 0
M  V30 54 Ag -2.8218 0.1792 7.1527 0
M  V30 55 Ag -7.7364 0.4784 5.3883 0
M  V30 56 Fe -6.0577 -0.9003 6.3165 0
M  V30 57 Ag -3.9346 -1.7985 6.8331 0
M  V30 58 Ag 3.9228 4.1622 1.3158 0
M  V30 59 Fe 4.4888 2.2549 2.5806 0
M  V30 60 Ag 5.3138 0.0757 2.9384 0
M  V30 61 Ag 4.3295 4.2153 -2.1312 0
M  V30 62 Fe 3.7464 3.1011 -4.1460 0
M  V30 63 Ag 3.0963 1.9021 -6.0903 0
M  V30 64 Ag 1.4530 -1.7234 1.6142 0
M  V30 65 Fe 0.3431 -1.0631 3.6000 0
M  V30 66 Ag -0.9531 -0.6302 5.5346 0
M  V30 67 Ag 4.8651 -3.9005 -3.6574 0
M  V30 68 Fe 5.7427 -2.9329 -1.6782 0
M  V30 69 Ag 6.4630 -1.8870 0.3245 0
M  V30 70 Ag 2.6778 5.2146 -0.6708 0
M  V30 71 Fe 0.3533 5.0696 -1.1373 0
M  V30 72 Ag -1.9580 4.7763 -1.5995 0
M  V30 73 Ba 2.7494 -3.6566 1.2896 0
M  V30 74 Ga 4.0250 -3.0936 1.7744 0
M  V30 75 Ba 5.2830 -2.4572 2.2121 0
M  V30 76 Ba -4.3754 2.2742 -1.9112 0
M  V30 77 Ga -4.5636 1.0397 -1.1215 0
M  V30 78 Ba -4.7803 -0.2030 -0.3522 0
M  V30 79 Ba 1.4122 -1.0235 -6.9681 0
M  V30 80 Ga 1.7317 -2.3545 -6.4135 0
M  V30 81 Ba 2.1379 -3.6361 -5.8025 0
M  V30 82 Ba 5.5452 3.2319 -0.1223 0
M  V30 83 Ga 5.9403 1.8997 0.4273 0
M  V30 84 Ba 6.4714 0.6019 0.9434 0
M  V30 85 Ba 3.7080 -0.3554 -6.9580 0
M  V30 86 Ga 4.1272 -1.6654 -6.4367 0
M  V30 87 Ba 4.4366 -2.9787 -5.8509 0
M  V30 88 Ba -7.7304 0.6377 3.0460 0
M  V30 89 Ga -6.7299 -0.1643 2.2990 0
M  V30 90 Ba -5.7686 -0.9998 1.5376 0
M  V30 91 Ba 1.4356 -4.2105 -0.8422 0
M  V30 92 Ga 1.9776 -4.4657 -2.1939 0
M  V30 93 Ba 2.5014 -4.7585 -3.5451 0
M  V30 94 Ba 0.1434 -2.0792 -0.4369 0
M  V30 95 Ga -1.2449 -1.6546 -0.1418 0
M  V30 96 Ba -2.6331 -1.1641 0.0203 0
M  V30 97 Ba -3.4292 -2.1961 2.2171 0
M  V30 98 Ga -2.9285 -2.2908 3.6130 0
M  V30 99 Ba -2.4166 -2.4407 5.0001 0
M  V30 END ATOM
M  V30 BEGIN BOND
M  V30 1 1 1 2
M  V30 2 1 1 3
M  V30 3 1 1 4
M  V30 4 1 1 5
M  V30 5 1 6 7
M  V30 6 1 6 8
M  V30 7 1 6 9
M  V30 8 1 6 10
M  V30 9 1 11 12
M  V30 10 1 11 13
M  V30 11 1 11 14
M  V30 12 1 11 15
M  V30 13 1 16 17
M  V30 14 1 16 18
M  V30 15 1 16 19
M  V30 16 1 16 20
M  V30 17 1 21 22
M  V30 18 1 21 23
M  V30 19 1 21 24
M  V30 20 1 21 25
M  V30 21 1 26 27
M  V30 22 1 26 28
M  V30 23 1 26 29
M  V30 24 1 26 30
M  V30 25 1 31 32
M  V30 26 1 31 33
M  V30 27 1 31 34
M  V30 28 1 31 35
M  V30 29 1 36 37
M  V30 30 1 36 38
M  V30 31 1 36 39
M  V30 32 1 36 40
M  V30 33 1 41 42
M  V30 34 1 41 43
M  V30 35 1 41 44
M  V30 36 1 41 45
M  V30 37 1 46 47
M  V30 38 1 47 48
M  V30 39 1 49 50
M  V30 40 1 50 51
M  V30 41 1 52 53
M  V30 42 1 53 54
M  V30 43 1 55 56
M  V30 44 1 56 57
M  V30 45 1 58 59
M  V30 46 1 59 60
M  V30 47 1 61 62
M  V30 48 1 62 63
M  V30 49 1 64 65
M  V30 50 1 65 66
M  V30 51 1 67 68
M  V30 52 1 68 69
M  V30 53 1 70 71
M  V30 54 1 71 72
M  V30 55 1 73 74
M  V30 56 1 74 75
M  V30 57 1 76 77
M  V30 58 1 77 78
M  V30 59 1 79 80
M  V30 60 1 80 81
M  V30 61 1 82 83
M  V30 62 1 83 84
M  V30 63 1 85 86
M  V30 64 1 86 87
M  V30 65 1 88 89
M  V30 66 1 89 90
M  V30 67 1 91 92
M  V30 68 1 92 93
M  V30 69 1 94 95
M  V30 70 1 95 96
M  V30 71 1 97 98
M  V30 72 1 98 99
M  V30 73 1 2 73
M  V30 74 1 3 64
M  V30 75 1 4 91
M  V30 76 1 5 94
M  V30 77 1 7 46
M  V30 78 1 8 55
M  V30 79 1 9 88
M  V30 80 1 10 52
M  V30 81 1 12 58
M  V30 82 1 13 70
M  V30 83 1 14 61
M  V30 84 1 15 82
M  V30 85 1 17 63
M  V30 86 1 18 79
M  V30 87 1 19 49
M  V30 88 1 20 85
M  V30 89 1 22 48
M  V30 90 1 23 72
M  V30 91 1 24 51
M  V30 92 1 25 76
M  V30 93 1 27 81
M  V30 94 1 28 67
M  V30 95 1 29 93
M  V30 96 1 30 87
M  V30 97 1 32 75
M  V30 98 1 33 69
M  V30 99 1 34 84
M  V30 100 1 35 60
M  V30 101 1 37 78
M  V30 102 1 38 97
M  V30 103 1 39 90
M  V30 104 1 40 96
M  V30 105 1 42 57
M  V30 106 1 43 66
M  V30 107 1 44 99
M  V30 108 1 45 54
M  V30 END BOND
M  V30 END CTAB
M  END

$$$$
