
     RDKit          3D

  0  0  0  0  0  0  0  0  0  0999 V3000
M  V30 BEGIN CTAB
M  V30 COUNTS 99 108 0 0 0
M  V30 BEGIN ATOM
M  V30 1 Pd 2.7026 1.8131 -3.3363 0
M  V30 2 Pb 1.7238 1.9235 -3.1747 0
M  V30 3 Pb 3.6897 1.7128 -3.4773 0
M  V30 4 Pb 2.6421 0.8125 -3.3018 0
M  V30 5 Pb 2.7482 2.8089 -3.4394 0
M  V30 6 Pd 3.9410 0.0294 3.3055 0
M  V30 7 Pb 3.1979 -0.1867 2.6718 0
M  V30 8 Pb 4.5945 -0.4813 2.7190 0
M  V30 9 Pb 3.3773 0.7285 3.7410 0
M  V30 10 Pb 4.6835 0.2520 3.9304 0
M  V30 11 Pd -6.7693 -1.5406 1.7883 0
M  V30 12 Pb -7.2247 -2.1418 1.1397 0
M  V30 13 Pb -6.3303 -0.9305 2.4525 0
M  V30 14 Pb -6.6494 -2.3213 2.3970 0
M  V30 15 Pb -6.8092 -0.8001 1.0979 0
M  V30 16 Pd -2.5705 -4.6372 2.0048 0
M  V30 17 Pb -3.4886 -4.6852 2.4022 0
M  V30 18 Pb -2.9097 -4.8115 1.0781 0
M  V30 19 Pb -2.2247 -4.3525 2.8945 0
M  V30 20 Pb -1.6415 -4.5936 1.6427 0
M  V30 21 Pd -1.7409 0.1778 2.8996 0
M  V30 22 Pb -0.8937 -0.0556 2.4184 0
M  V30 23 Pb -2.6255 0.3697 3.3252 0
M  V30 24 Pb -1.6095 -0.5966 3.5195 0
M  V30 25 Pb -1.8542 0.9701 2.2993 0
M  V30 26 Pd -0.5334 -3.0687 -2.6502 0
M  V30 27 Pb -1.3841 -3.5385 -2.3948 0
M  V30 28 Pb -0.9571 -2.7321 -3.4933 0
M  V30 29 Pb 0.3425 -2.6447 -2.8921 0
M  V30 30 Pb -0.1096 -3.4147 -1.8163 0
M  V30 31 Pd -4.8324 -0.2286 -3.5025 0
M  V30 32 Pb -4.1464 0.4624 -3.2891 0
M  V30 33 Pb -4.2149 -0.6073 -4.1905 0
M  V30 34 Pb -5.4159 0.1100 -2.7444 0
M  V30 35 Pb -5.5017 -0.9402 -3.6895 0
M  V30 36 Pd 2.1101 5.8248 -0.0357 0
M  V30 37 Pb 1.1604 5.5160 -0.0601 0
M  V30 38 Pb 3.0860 6.0436 -0.0368 0
M  V30 39 Pb 2.0919 5.6334 0.9462 0
M  V30 40 Pb 2.1523 5.8865 -1.0306 0
M  V30 41 Pd 7.6271 1.6411 -0.4349 0
M  V30 42 Pb 7.3423 0.7209 -0.1143 0
M  V30 43 Pb 7.2002 1.5146 -1.3347 0
M  V30 44 Pb 7.7109 2.6184 -0.6140 0
M  V30 45 Pb 8.0988 1.7756 0.4313 0
M  V30 46 Ag 0.9998 2.0639 -3.0474 0
M  V30 47 Fe -1.3040 1.4998 -3.0913 0
M  V30 48 Ag -3.6136 0.9587 -3.1237 0
M  V30 49 Ag -1.9094 1.5757 1.8596 0
M  V30 50 Fe -0.7981 3.4264 0.8702 0
M  V30 51 Ag 0.4747 5.2159 -0.0333 0
M  V30 52 Ag 5.3190 0.4666 4.2431 0
M  V30 53 Fe 7.2314 1.2660 3.1330 0
M  V30 54 Ag 8.3357 1.8213 1.1320 0
M  V30 55 Ag -7.4985 -2.5178 0.5626 0
M  V30 56 Fe -7.0759 -2.3653 -1.7495 0
M  V30 57 Ag -6.0126 -1.4745 -3.6524 0
M  V30 58 Ag 3.0330 1.3605 3.9466 0
M  V30 59 Fe 2.4547 3.4471 2.9721 0
M  V30 60 Ag 2.0395 5.3749 1.6490 0
M  V30 61 Ag 3.8263 6.1293 -0.1218 0
M  V30 62 Fe 5.8458 4.9154 -0.4090 0
M  V30 63 Ag 7.6224 3.3599 -0.6465 0
M  V30 64 Ba 2.6537 -0.3515 2.1824 0
M  V30 65 Ga 1.1795 -0.2852 2.1371 0
M  V30 66 Ba -0.2911 -0.2502 2.0131 0
M  V30 67 Ba -1.9702 -4.0523 3.5282 0
M  V30 68 Ga -1.7213 -2.6295 3.8124 0
M  V30 69 Ba -1.5110 -1.1818 3.9790 0
M  V30 70 Ba -3.1362 -4.8850 0.3643 0
M  V30 71 Ga -2.5789 -4.4077 -0.9215 0
M  V30 72 Ba -2.0044 -3.9203 -2.1960 0
M  V30 73 Ba -6.8416 -0.2549 0.5645 0
M  V30 74 Ga -6.3175 0.0155 -0.8069 0
M  V30 75 Ba -5.8480 0.3828 -2.1755 0
M  V30 76 Ba 5.0984 -0.8104 2.2432 0
M  V30 77 Ga 6.0895 -0.3570 1.2154 0
M  V30 78 Ba 7.0898 0.0599 0.1811 0
M  V30 79 Ba -0.9435 -4.5573 1.3767 0
M  V30 80 Ga -0.3563 -4.1222 0.0995 0
M  V30 81 Ba 0.1989 -3.6798 -1.1894 0
M  V30 82 Ba -6.5171 -2.9438 2.7893 0
M  V30 83 Ga -5.3479 -3.8424 2.7890 0
M  V30 84 Ba -4.1548 -4.7086 2.7500 0
M  V30 85 Ba 2.6604 0.0601 -3.3256 0
M  V30 86 Ga 1.7846 -1.1209 -3.1713 0
M  V30 87 Ba 1.0325 -2.3878 -3.0483 0
M  V30 88 Ba 2.7251 3.5541 -3.5419 0
M  V30 89 Ga 2.4868 4.7266 -2.6780 0
M  V30 90 Ba 2.2474 5.8668 -1.7724 0
M  V30 91 Ba 4.4247 1.6005 -3.5911 0
M  V30 92 Ga 5.6567 1.5321 -2.7756 0
M  V30 93 Ba 6.9351 1.4456 -2.0371 0
M  V30 94 Ba -1.2832 -2.4861 -4.1244 0
M  V30 95 Ga -2.4949 -1.6974 -4.4205 0
M  V30 96 Ba -3.7160 -0.9053 -4.6633 0
M  V30 97 Ba -6.0192 -0.4708 2.9615 0
M  V30 98 Ga -4.6612 0.0105 3.2887 0
M  V30 99 Ba -3.3047 0.4942 3.6188 0
M  V30 END ATOM
M  V30 BEGIN BOND
M  V30 1 1 1 2
M  V30 2 1 1 3
M  V30 3 1 1 4
M  V30 4 1 1 5
M  V30 5 1 6 7
M  V30 6 1 6 8
M  V30 7 1 6 9
M  V30 8 1 6 10
M  V30 9 1 11 12
M  V30 10 1 11 13
M  V30 11 1 11 14
M  V30 12 1 11 15
M  V30 13 1 16 17
M  V30 14 1 16 18
M  V30 15 1 16 19
M  V30 16 1 16 20
M  V30 17 1 21 22
M  V30 18 1 21 23
M  V30 19 1 21 24
M  V30 20 1 21 25
M  V30 21 1 26 27
M  V30 22 1 26 28
M  V30 23 1 26 29
M  V30 24 1 26 30
M  V30 25 1 31 32
M  V30 26 1 31 33
M  V30 27 1 31 34
M  V30 28 1 31 35
M  V30 29 1 36 37
M  V30 30 1 36 38
M  V30 31 1 36 39
M  V30 32 1 36 40
M  V30 33 1 41 42
M  V30 34 1 41 43
M  V30 35 1 41 44
M  V30 36 1 41 45
M  V30 37 1 46 47
M  V30 38 1 47 48
M  V30 39 1 49 50
M  V30 40 1 50 51
M  V30 41 1 52 53
M  V30 42 1 53 54
M  V30 43 1 55 56
M  V30 44 1 56 57
M  V30 45 1 58 59
M  V30 46 1 59 60
M  V30 47 1 61 62
M  V30 48 1 62 63
M  V30 49 1 64 65
M  V30 50 1 65 66
M  V30 51 1 67 68
M  V30 52 1 68 69
M  V30 53 1 70 71
M  V30 54 1 71 72
M  V30 55 1 73 74
M  V30 56 1 74 75
M  V30 57 1 76 77
M  V30 58 1 77 78
M  V30 59 1 79 80
M  V30 60 1 80 81
M  V30 61 1 82 83
M  V30 62 1 83 84
M  V30 63 1 85 86
M  V30 64 1 86 87
M  V30 65 1 88 89
M  V30 66 1 89 90
M  V30 67 1 91 92
M  V30 68 1 92 93
M  V30 69 1 94 95
M  V30 70 1 95 96
M  V30 71 1 97 98
M  V30 72 1 98 99
M  V30 73 1 2 46
M  V30 74 1 3 91
M  V30 75 1 4 85
M  V30 76 1 5 88
M  V30 77 1 7 64
M  V30 78 1 8 76
M  V30 79 1 9 58
M  V30 80 1 10 52
M  V30 81 1 12 55
M  V30 82 1 13 97
M  V30 83 1 14 82
M  V30 84 1 15 73
M  V30 85 1 17 84
M  V30 86 1 18 70
M  V30 87 1 19 67
M  V30 88 1 20 79
M  V30 89 1 22 66
M  V30 90 1 23 99
M  V30 91 1 24 69
M  V30 92 1 25 49
M  V30 93 1 27 72
M  V30 94 1 28 94
M  V30 95 1 29 87
M  V30 96 1 30 81
M  V30 97 1 32 48
M  V30 98 1 33 96
M  V30 99 1 34 75
M  V30 100 1 35 57
M  V30 101 1 37 51
M  V30 102 1 38 61
M  V30 103 1 39 60
M  V30 104 1 40 90
M  V30 105 1 42 78
M  V30 106 1 43 93
M  V30 107 1 44 63
M  V30 108 1 45 54
M  V30 END BOND
M  V30 END CTAB
M  END

$$$$
