
     RDKit          3D

  0  0  0  0  0  0  0  0  0  0999 V3000
M  V30 BEGIN CTAB
M  V30 COUNTS 99 108 0 0 0
M  V30 BEGIN ATOM
M  V30 1 Pd 0.2528 2.0918 3.1580 0
M  V30 2 Pb -0.6250 2.3477 3.5592 0
M  V30 3 Pb 1.1324 1.8243 2.7612 0
M  V30 4 Pb 0.6836 2.0296 4.0578 0
M  V30 5 Pb -0.2297 2.0570 2.2814 0
M  V30 6 Pd 5.3207 3.4546 -5.7782 0
M  V30 7 Pb 4.9255 2.7253 -6.3335 0
M  V30 8 Pb 5.5881 4.1179 -5.0641 0
M  V30 9 Pb 4.5649 4.0413 -6.0635 0
M  V30 10 Pb 6.0598 2.8608 -5.4712 0
M  V30 11 Pd -3.9451 -3.5434 -0.4201 0
M  V30 12 Pb -4.6509 -2.8563 -0.2485 0
M  V30 13 Pb -3.7977 -3.1347 -1.3258 0
M  V30 14 Pb -3.2631 -4.2572 -0.5984 0
M  V30 15 Pb -4.1640 -3.9541 0.4702 0
M  V30 16 Pd 0.9132 -4.9910 1.5348 0
M  V30 17 Pb 0.3153 -5.4005 0.8450 0
M  V30 18 Pb 1.4682 -4.5219 2.2534 0
M  V30 19 Pb 1.2659 -4.3910 0.8212 0
M  V30 20 Pb 0.5746 -5.6313 2.2134 0
M  V30 21 Pd -0.7284 -0.9216 -4.8627 0
M  V30 22 Pb 0.0662 -0.6337 -5.4038 0
M  V30 23 Pb -1.5477 -1.2621 -4.3907 0
M  V30 24 Pb -0.1098 -1.3754 -4.2238 0
M  V30 25 Pb -1.3294 -0.3692 -5.4397 0
M  V30 26 Pd 0.8133 -2.0889 6.6309 0
M  V30 27 Pb 1.4719 -2.4074 5.9238 0
M  V30 28 Pb 0.0263 -1.8279 7.1836 0
M  V30 29 Pb 1.0962 -1.1302 6.5340 0
M  V30 30 Pb 0.5385 -3.0304 6.7817 0
M  V30 31 Pd -5.7229 -1.4447 4.0273 0
M  V30 32 Pb -5.6490 -0.4632 4.1795 0
M  V30 33 Pb -5.3417 -1.5534 4.9452 0
M  V30 34 Pb -5.6390 -2.4217 3.8254 0
M  V30 35 Pb -6.0486 -1.2983 3.0950 0
M  V30 36 Pd -1.6086 3.9795 -4.0587 0
M  V30 37 Pb -2.0354 3.4044 -4.7590 0
M  V30 38 Pb -1.1347 4.5033 -3.3519 0
M  V30 39 Pb -1.1131 4.4866 -4.7590 0
M  V30 40 Pb -1.9797 3.4211 -3.3215 0
M  V30 41 Pd 4.7407 3.6430 -0.2166 0
M  V30 42 Pb 5.1046 4.2253 -0.9630 0
M  V30 43 Pb 4.3668 2.9930 0.4477 0
M  V30 44 Pb 3.8975 4.1791 -0.2169 0
M  V30 45 Pb 5.5623 3.0834 -0.2850 0
M  V30 46 Ag 4.5320 2.1737 -6.6524 0
M  V30 47 Fe 2.6038 0.8290 -6.3019 0
M  V30 48 Ag 0.6554 -0.4506 -5.8365 0
M  V30 49 Ag -1.3169 2.4949 3.8027 0
M  V30 50 Fe -3.4652 1.5422 4.1171 0
M  V30 51 Ag -5.4403 0.2432 4.2954 0
M  V30 52 Ag 1.5059 -3.9874 0.2402 0
M  V30 53 Fe 0.9491 -2.8126 -1.7445 0
M  V30 54 Ag 0.3856 -1.6422 -3.7300 0
M  V30 55 Ag 6.5595 2.4726 -5.0829 0
M  V30 56 Fe 6.7899 2.2495 -2.7475 0
M  V30 57 Ag 6.1364 2.6785 -0.5240 0
M  V30 58 Ag 0.3514 -6.0072 2.8083 0
M  V30 59 Fe 0.1661 -5.3218 5.0492 0
M  V30 60 Ag 0.3358 -3.7408 6.7809 0
M  V30 61 Ag 3.9623 4.4396 -6.2589 0
M  V30 62 Fe 1.6451 4.7498 -5.8614 0
M  V30 63 Ag -0.6406 4.8158 -5.2337 0
M  V30 64 Ag -0.6783 1.9981 1.6808 0
M  V30 65 Fe -1.4281 2.4973 -0.5166 0
M  V30 66 Ag -2.1500 3.0126 -2.7196 0
M  V30 67 Ag -0.7515 4.8372 -2.8014 0
M  V30 68 Fe 1.2269 4.7830 -1.4903 0
M  V30 69 Ag 3.2614 4.5690 -0.2856 0
M  V30 70 Ag -0.6533 -1.7193 7.4734 0
M  V30 71 Fe -2.8978 -1.6110 6.7116 0
M  V30 72 Ag -5.0005 -1.5505 5.6130 0
M  V30 73 Ba -1.7807 0.0959 -5.8169 0
M  V30 74 Ga -2.0810 1.5231 -5.5893 0
M  V30 75 Ba -2.3185 2.9479 -5.2847 0
M  V30 76 Ba 1.9110 -4.1687 2.7774 0
M  V30 77 Ga 1.8581 -3.4244 4.0783 0
M  V30 78 Ba 1.9379 -2.6688 5.3716 0
M  V30 79 Ba -4.3790 -4.2548 1.1283 0
M  V30 80 Ga -4.9446 -3.7157 2.3853 0
M  V30 81 Ba -5.5060 -3.1339 3.6250 0
M  V30 82 Ba 5.7537 4.5889 -4.4888 0
M  V30 83 Ga 5.5589 4.5944 -3.0092 0
M  V30 84 Ba 5.3906 4.6535 -1.5277 0
M  V30 85 Ba -5.1932 -2.3569 -0.1110 0
M  V30 86 Ga -5.7417 -1.7622 1.1208 0
M  V30 87 Ba -6.2528 -1.1970 2.3822 0
M  V30 88 Ba -2.7714 -4.8115 -0.7338 0
M  V30 89 Ga -1.4598 -5.2397 -0.2048 0
M  V30 90 Ba -0.1480 -5.6718 0.3205 0
M  V30 91 Ba 1.0131 1.9295 4.7240 0
M  V30 92 Ga 1.1564 0.7572 5.6127 0
M  V30 93 Ba 1.3085 -0.4068 6.5108 0
M  V30 94 Ba 1.8115 1.5994 2.5315 0
M  V30 95 Ga 2.9351 2.0763 1.6998 0
M  V30 96 Ba 4.1204 2.4446 0.8991 0
M  V30 97 Ba -3.7861 -2.8181 -2.0103 0
M  V30 98 Ga -2.9069 -2.1738 -3.0118 0
M  V30 99 Ba -2.2151 -1.5083 -4.1385 0
M  V30 END ATOM
M  V30 BEGIN BOND
M  V30 1 1 1 2
M  V30 2 1 1 3
M  V30 3 1 1 4
M  V30 4 1 1 5
M  V30 5 1 6 7
M  V30 6 1 6 8
M  V30 7 1 6 9
M  V30 8 1 6 10
M  V30 9 1 11 12
M  V30 10 1 11 13
M  V30 11 1 11 14
M  V30 12 1 11 15
M  V30 13 1 16 17
M  V30 14 1 16 18
M  V30 15 1 16 19
M  V30 16 1 16 20
M  V30 17 1 21 22
M  V30 18 1 21 23
M  V30 19 1 21 24
M  V30 20 1 21 25
M  V30 21 1 26 27
M  V30 22 1 26 28
M  V30 23 1 26 29
M  V30 24 1 26 30
M  V30 25 1 31 32
M  V30 26 1 31 33
M  V30 27 1 31 34
M  V30 28 1 31 35
M  V30 29 1 36 37
M  V30 30 1 36 38
M  V30 31 1 36 39
M  V30 32 1 36 40
M  V30 33 1 41 42
M  V30 34 1 41 43
M  V30 35 1 41 44
M  V30 36 1 41 45
M  V30 37 1 46 47
M  V30 38 1 47 48
M  V30 39 1 49 50
M  V30 40 1 50 51
M  V30 41 1 52 53
M  V30 42 1 53 54
M  V30 43 1 55 56
M  V30 44 1 56 57
M  V30 45 1 58 59
M  V30 46 1 59 60
M  V30 47 1 61 62
M  V30 48 1 62 63
M  V30 49 1 64 65
M  V30 50 1 65 66
M  V30 51 1 67 68
M  V30 52 1 68 69
M  V30 53 1 70 71
M  V30 54 1 71 72
M  V30 55 1 73 74
M  V30 56 1 74 75
M  V30 57 1 76 77
M  V30 58 1 77 78
M  V30 59 1 79 80
M  V30 60 1 80 81
M  V30 61 1 82 83
M  V30 62 1 83 84
M  V30 63 1 85 86
M  V30 64 1 86 87
M  V30 65 1 88 89
M  V30 66 1 89 90
M  V30 67 1 91 92
M  V30 68 1 92 93
M  V30 69 1 94 95
M  V30 70 1 95 96
M  V30 71 1 97 98
M  V30 72 1 98 99
M  V30 73 1 2 49
M  V30 74 1 3 94
M  V30 75 1 4 91
M  V30 76 1 5 64
M  V30 77 1 7 46
M  V30 78 1 8 82
M  V30 79 1 9 61
M  V30 80 1 10 55
M  V30 81 1 12 85
M  V30 82 1 13 97
M  V30 83 1 14 88
M  V30 84 1 15 79
M  V30 85 1 17 90
M  V30 86 1 18 76
M  V30 87 1 19 52
M  V30 88 1 20 58
M  V30 89 1 22 48
M  V30 90 1 23 99
M  V30 91 1 24 54
M  V30 92 1 25 73
M  V30 93 1 27 78
M  V30 94 1 28 70
M  V30 95 1 29 93
M  V30 96 1 30 60
M  V30 97 1 32 51
M  V30 98 1 33 72
M  V30 99 1 34 81
M  V30 100 1 35 87
M  V30 101 1 37 75
M  V30 102 1 38 67
M  V30 103 1 39 63
M  V30 104 1 40 66
M  V30 105 1 42 84
M  V30 106 1 43 96
M  V30 107 1 44 69
M  V30 108 1 45 57
M  V30 END BOND
M  V30 END CTAB
M  END

$$$$
