
     RDKit          3D

  0  0  0  0  0  0  0  0  0  0999 V3000
M  V30 BEGIN CTAB
M  V30 COUNTS 99 108 0 0 0
M  V30 BEGIN ATOM
M  V30 1 Pd 3.7725 -1.6220 -0.2938 0
M  V30 2 Pb 3.8215 -1.7438 0.7012 0
M  V30 3 Pb 3.4436 -2.5630 -0.3754 0
M  V30 4 Pb 4.2381 -0.7377 -0.2299 0
M  V30 5 Pb 3.6513 -1.5046 -1.2804 0
M  V30 6 Pd 4.3758 4.0188 -1.9619 0
M  V30 7 Pb 3.9862 4.8628 -2.3212 0
M  V30 8 Pb 3.6122 3.5193 -2.3690 0
M  V30 9 Pb 4.7380 3.2034 -1.5076 0
M  V30 10 Pb 4.9998 4.5773 -1.4236 0
M  V30 11 Pd 0.0021 5.4026 -0.4778 0
M  V30 12 Pb -0.6277 4.8052 0.0166 0
M  V30 13 Pb 0.1493 4.6837 -1.1641 0
M  V30 14 Pb -0.0756 6.0975 0.2407 0
M  V30 15 Pb 0.6000 5.9948 -1.0151 0
M  V30 16 Pd 1.5227 0.4911 4.4497 0
M  V30 17 Pb 0.9796 1.2613 4.7892 0
M  V30 18 Pb 0.6664 -0.0175 4.3368 0
M  V30 19 Pb 2.3521 1.0201 4.6302 0
M  V30 20 Pb 2.0892 -0.2690 4.1176 0
M  V30 21 Pd -4.7682 -0.2113 -1.7542 0
M  V30 22 Pb -5.0425 -0.7825 -2.5286 0
M  V30 23 Pb -5.3322 -0.7498 -1.1264 0
M  V30 24 Pb -4.4528 0.3617 -0.9992 0
M  V30 25 Pb -4.2101 0.3310 -2.3833 0
M  V30 26 Pd 2.3259 5.6267 4.2134 0
M  V30 27 Pb 2.9347 4.9173 4.5665 0
M  V30 28 Pb 1.5548 5.1620 4.6464 0
M  V30 29 Pb 1.7028 6.2853 3.7860 0
M  V30 30 Pb 3.1093 6.0249 3.7406 0
M  V30 31 Pd -1.3190 -7.4665 -0.8014 0
M  V30 32 Pb -2.3136 -7.5651 -0.7903 0
M  V30 33 Pb -1.3153 -7.3805 -1.7957 0
M  V30 34 Pb -1.3251 -7.4751 0.1958 0
M  V30 35 Pb -0.3446 -7.2556 -0.7906 0
M  V30 36 Pd -1.6819 -1.8543 -5.4113 0
M  V30 37 Pb -1.5447 -2.8365 -5.5222 0
M  V30 38 Pb -1.8413 -0.8876 -5.2220 0
M  V30 39 Pb -0.6929 -1.7089 -5.3590 0
M  V30 40 Pb -2.6709 -2.0031 -5.3787 0
M  V30 41 Pd -4.2114 -4.4288 1.8841 0
M  V30 42 Pb -3.8456 -3.7042 2.4689 0
M  V30 43 Pb -3.5316 -5.0641 2.2479 0
M  V30 44 Pb -4.5420 -5.1619 1.2867 0
M  V30 45 Pb -4.9122 -3.8079 1.5282 0
M  V30 46 Ag 3.2775 -3.2920 -0.4419 0
M  V30 47 Fe 1.8195 -5.1581 -0.6077 0
M  V30 48 Ag 0.3671 -7.0285 -0.7737 0
M  V30 49 Ag -0.0168 -0.3329 4.3201 0
M  V30 50 Fe -1.7418 -1.7810 3.5611 0
M  V30 51 Ag -3.5576 -3.1701 2.9107 0
M  V30 52 Ag -1.1203 4.3454 0.3434 0
M  V30 53 Fe -2.6689 2.5749 0.0250 0
M  V30 54 Ag -4.1749 0.8069 -0.4651 0
M  V30 55 Ag 3.5044 -1.4344 -2.0135 0
M  V30 56 Fe 1.8301 -1.5004 -3.6984 0
M  V30 57 Ag 0.0439 -1.6003 -5.2623 0
M  V30 58 Ag 5.3175 5.0221 -0.9178 0
M  V30 59 Fe 4.7292 5.7841 1.2466 0
M  V30 60 Ag 3.7043 6.2275 3.3363 0
M  V30 61 Ag -1.2962 -7.2400 -2.5300 0
M  V30 62 Fe -1.3686 -5.4991 -4.1395 0
M  V30 63 Ag -1.4689 -3.5804 -5.5307 0
M  V30 64 Ba -3.0616 -7.5671 -0.7393 0
M  V30 65 Ga -3.9510 -6.6752 0.0304 0
M  V30 66 Ba -4.7464 -5.7290 0.8376 0
M  V30 67 Ba 0.5803 1.8443 5.0458 0
M  V30 68 Ga 0.7636 3.3082 5.0130 0
M  V30 69 Ba 0.9977 4.7638 4.9503 0
M  V30 70 Ba 2.9501 1.4389 4.8029 0
M  V30 71 Ga 3.1944 2.8932 4.8036 0
M  V30 72 Ba 3.3816 4.3559 4.7826 0
M  V30 73 Ba 2.9613 3.2302 -2.6041 0
M  V30 74 Ga 1.6050 3.6392 -2.1792 0
M  V30 75 Ba 0.3126 4.1457 -1.6678 0
M  V30 76 Ba -5.7661 -1.1416 -0.6548 0
M  V30 77 Ga -5.5858 -2.2512 0.3028 0
M  V30 78 Ba -5.4569 -3.3580 1.2719 0
M  V30 79 Ba 3.6540 5.5051 -2.5061 0
M  V30 80 Ga 2.3617 6.0174 -2.0271 0
M  V30 81 Ba 1.0555 6.3864 -1.4613 0
M  V30 82 Ba 3.8270 -1.8740 1.4435 0
M  V30 83 Ga 3.1748 -1.3215 2.6524 0
M  V30 84 Ba 2.5573 -0.8197 3.9008 0
M  V30 85 Ba -1.3577 -7.4181 0.9401 0
M  V30 86 Ga -2.1711 -6.5146 1.7696 0
M  V30 87 Ba -3.0321 -5.5653 2.4936 0
M  V30 88 Ba -3.7911 0.7218 -2.8682 0
M  V30 89 Ga -2.8846 0.3165 -3.9573 0
M  V30 90 Ba -1.9988 -0.1839 -5.0236 0
M  V30 91 Ba 4.6734 -0.1273 -0.1783 0
M  V30 92 Ga 4.7880 1.2567 -0.6807 0
M  V30 93 Ba 5.0395 2.6512 -1.0969 0
M  V30 94 Ba -5.2007 -1.1931 -3.1369 0
M  V30 95 Ga -4.3426 -1.6699 -4.2392 0
M  V30 96 Ba -3.4104 -2.1044 -5.2980 0
M  V30 97 Ba -0.1028 6.6044 0.7966 0
M  V30 98 Ga 0.5510 6.6965 2.1199 0
M  V30 99 Ba 1.2253 6.7490 3.4350 0
M  V30 END ATOM
M  V30 BEGIN BOND
M  V30 1 1 1 2
M  V30 2 1 1 3
M  V30 3 1 1 4
M  V30 4 1 1 5
M  V30 5 1 6 7
M  V30 6 1 6 8
M  V30 7 1 6 9
M  V30 8 1 6 10
M  V30 9 1 11 12
M  V30 10 1 11 13
M  V30 11 1 11 14
M  V30 12 1 11 15
M  V30 13 1 16 17
M  V30 14 1 16 18
M  V30 15 1 16 19
M  V30 16 1 16 20
M  V30 17 1 21 22
M  V30 18 1 21 23
M  V30 19 1 21 24
M  V30 20 1 21 25
M  V30 21 1 26 27
M  V30 22 1 26 28
M  V30 23 1 26 29
M  V30 24 1 26 30
M  V30 25 1 31 32
M  V30 26 1 31 33
M  V30 27 1 31 34
M  V30 28 1 31 35
M  V30 29 1 36 37
M  V30 30 1 36 38
M  V30 31 1 36 39
M  V30 32 1 36 40
M  V30 33 1 41 42
M  V30 34 1 41 43
M  V30 35 1 41 44
M  V30 36 1 41 45
M  V30 37 1 46 47
M  V30 38 1 47 48
M  V30 39 1 49 50
M  V30 40 1 50 51
M  V30 41 1 52 53
M  V30 42 1 53 54
M  V30 43 1 55 56
M  V30 44 1 56 57
M  V30 45 1 58 59
M  V30 46 1 59 60
M  V30 47 1 61 62
M  V30 48 1 62 63
M  V30 49 1 64 65
M  V30 50 1 65 66
M  V30 51 1 67 68
M  V30 52 1 68 69
M  V30 53 1 70 71
M  V30 54 1 71 72
M  V30 55 1 73 74
M  V30 56 1 74 75
M  V30 57 1 76 77
M  V30 58 1 77 78
M  V30 59 1 79 80
M  V30 60 1 80 81
M  V30 61 1 82 83
M  V30 62 1 83 84
M  V30 63 1 85 86
M  V30 64 1 86 87
M  V30 65 1 88 89
M  V30 66 1 89 90
M  V30 67 1 91 92
M  V30 68 1 92 93
M  V30 69 1 94 95
M  V30 70 1 95 96
M  V30 71 1 97 98
M  V30 72 1 98 99
M  V30 73 1 2 82
M  V30 74 1 3 46
M  V30 75 1 4 91
M  V30 76 1 5 55
M  V30 77 1 7 79
M  V30 78 1 8 73
M  V30 79 1 9 93
M  V30 80 1 10 58
M  V30 81 1 12 52
M  V30 82 1 13 75
M  V30 83 1 14 97
M  V30 84 1 15 81
M  V30 85 1 17 67
M  V30 86 1 18 49
M  V30 87 1 19 70
M  V30 88 1 20 84
M  V30 89 1 22 94
M  V30 90 1 23 76
M  V30 91 1 24 54
M  V30 92 1 25 88
M  V30 93 1 27 72
M  V30 94 1 28 69
M  V30 95 1 29 99
M  V30 96 1 30 60
M  V30 97 1 32 64
M  V30 98 1 33 61
M  V30 99 1 34 85
M  V30 100 1 35 48
M  V30 101 1 37 63
M  V30 102 1 38 90
M  V30 103 1 39 57
M  V30 104 1 40 96
M  V30 105 1 42 51
M  V30 106 1 43 87
M  V30 107 1 44 66
M  V30 108 1 45 78
M  V30 END BOND
M  V30 END CTAB
M  END

$$$$
