
     RDKit          3D

  0  0  0  0  0  0  0  0  0  0999 V3000
M  V30 BEGIN CTAB
M  V30 COUNTS 99 108 0 0 0
M  V30 BEGIN ATOM
M  V30 1 Pd -1.4967 -3.2882 -2.1310 0
M  V30 2 Pb -2.3723 -2.8607 -2.3738 0
M  V30 3 Pb -1.9543 -4.1533 -1.9293 0
M  V30 4 Pb -1.0264 -2.4149 -2.2387 0
M  V30 5 Pb -0.6395 -3.7147 -1.8486 0
M  V30 6 Pd 3.7695 -0.8689 -1.8244 0
M  V30 7 Pb 4.7543 -0.7280 -1.8094 0
M  V30 8 Pb 3.7704 -0.7740 -0.8269 0
M  V30 9 Pb 2.7702 -0.8147 -1.8792 0
M  V30 10 Pb 3.7947 -0.8486 -2.8201 0
M  V30 11 Pd 4.8879 3.3059 -0.0416 0
M  V30 12 Pb 4.2745 3.9004 0.4791 0
M  V30 13 Pb 4.7894 2.5762 0.6351 0
M  V30 14 Pb 4.8396 3.9488 -0.8077 0
M  V30 15 Pb 5.5434 2.7205 -0.5216 0
M  V30 16 Pd -3.7358 1.7454 -3.3938 0
M  V30 17 Pb -3.3353 1.4884 -4.2722 0
M  V30 18 Pb -4.1946 2.0404 -2.5524 0
M  V30 19 Pb -3.4431 2.6910 -3.5623 0
M  V30 20 Pb -4.0163 0.7939 -3.2417 0
M  V30 21 Pd 1.9220 3.0546 4.6028 0
M  V30 22 Pb 1.6752 2.3357 5.2529 0
M  V30 23 Pb 1.0226 3.4715 4.7119 0
M  V30 24 Pb 2.1576 3.7441 3.9177 0
M  V30 25 Pb 2.7439 2.5214 4.4091 0
M  V30 26 Pd 0.4317 3.6208 -5.8477 0
M  V30 27 Pb -0.2981 4.1749 -5.4461 0
M  V30 28 Pb -0.2600 2.9923 -6.1978 0
M  V30 29 Pb 1.1469 4.1911 -5.4351 0
M  V30 30 Pb 1.1313 2.9863 -6.1637 0
M  V30 31 Pd -3.1827 -4.4008 2.3901 0
M  V30 32 Pb -3.8497 -3.8740 1.8629 0
M  V30 33 Pb -2.5225 -4.9353 2.9243 0
M  V30 34 Pb -3.2271 -3.7132 3.1151 0
M  V30 35 Pb -3.1469 -5.0538 1.6335 0
M  V30 36 Pd 2.0595 -3.9802 4.0856 0
M  V30 37 Pb 1.3135 -4.6375 4.2106 0
M  V30 38 Pb 2.7702 -3.2883 3.9493 0
M  V30 39 Pb 2.2570 -4.3820 3.1951 0
M  V30 40 Pb 1.8011 -3.4737 4.9058 0
M  V30 41 Pd -4.5247 0.7515 2.2045 0
M  V30 42 Pb -4.8044 1.3635 1.4636 0
M  V30 43 Pb -4.2399 0.1390 2.9443 0
M  V30 44 Pb -4.8759 -0.0357 1.7005 0
M  V30 45 Pb -4.1548 1.5297 2.7117 0
M  V30 46 Ag -0.0223 -4.0410 -1.5798 0
M  V30 47 Fe 1.2625 -4.4143 0.3782 0
M  V30 48 Ag 2.3289 -4.6081 2.4873 0
M  V30 49 Ag 3.7853 -0.7206 -3.5544 0
M  V30 50 Fe 2.8131 0.7710 -5.1163 0
M  V30 51 Ag 1.6261 2.4454 -6.2979 0
M  V30 52 Ag 0.3082 3.6903 4.7248 0
M  V30 53 Fe -1.8334 3.0059 3.9658 0
M  V30 54 Ag -3.8438 2.0945 3.0942 0
M  V30 55 Ag 3.2647 2.0049 4.2581 0
M  V30 56 Fe 3.4368 -0.3528 4.0308 0
M  V30 57 Ag 3.2518 -2.7160 3.8817 0
M  V30 58 Ag 1.5221 1.7454 5.6893 0
M  V30 59 Fe 1.5119 -0.6278 5.7396 0
M  V30 60 Ag 1.6219 -2.9794 5.4378 0
M  V30 61 Ag 4.6943 4.3812 -1.4055 0
M  V30 62 Fe 3.2533 4.5708 -3.2882 0
M  V30 63 Ag 1.7113 4.5605 -5.0992 0
M  V30 64 Ba -4.3521 -3.4846 1.4647 0
M  V30 65 Ga -4.7465 -2.0662 1.3904 0
M  V30 66 Ba -5.1213 -0.6417 1.3360 0
M  V30 67 Ba -3.0535 1.3405 -4.9503 0
M  V30 68 Ga -1.9179 1.8934 -5.7081 0
M  V30 69 Ba -0.7676 2.4862 -6.4115 0
M  V30 70 Ba -2.2629 -4.7974 -1.7024 0
M  V30 71 Ga -2.7187 -5.2013 -0.3594 0
M  V30 72 Ba -3.1417 -5.4904 1.0235 0
M  V30 73 Ba -4.5713 2.3080 -1.9582 0
M  V30 74 Ga -4.7657 2.0329 -0.5199 0
M  V30 75 Ba -5.0215 1.8354 0.9216 0
M  V30 76 Ba 3.8398 4.3670 0.8748 0
M  V30 77 Ga 3.0765 4.3003 2.1357 0
M  V30 78 Ba 2.3055 4.2595 3.3930 0
M  V30 79 Ba -3.2158 3.3958 -3.7051 0
M  V30 80 Ga -2.0549 3.9871 -4.4049 0
M  V30 81 Ba -0.8743 4.5245 -5.1151 0
M  V30 82 Ba -2.0425 -5.3419 3.3390 0
M  V30 83 Ga -0.6444 -5.2220 3.8055 0
M  V30 84 Ba 0.7508 -5.1306 4.2870 0
M  V30 85 Ba 3.8332 -0.6260 -0.0919 0
M  V30 86 Ga 4.2375 0.6350 0.5639 0
M  V30 87 Ba 4.6528 1.9667 1.0512 0
M  V30 88 Ba 5.4550 -0.4756 -1.7978 0
M  V30 89 Ga 5.8387 0.8673 -1.3333 0
M  V30 90 Ba 6.0299 2.2374 -0.8291 0
M  V30 91 Ba -3.0443 -2.5583 -2.5334 0
M  V30 92 Ga -3.6084 -1.2247 -2.8395 0
M  V30 93 Ba -4.2362 0.0789 -3.1506 0
M  V30 94 Ba -3.2720 -3.1743 3.6350 0
M  V30 95 Ga -3.6464 -1.7472 3.5788 0
M  V30 96 Ba -4.0246 -0.3224 3.4975 0
M  V30 97 Ba -0.6797 -1.7528 -2.2690 0
M  V30 98 Ga 0.7040 -1.2613 -2.1195 0
M  V30 99 Ba 2.0422 -0.6541 -1.9849 0
M  V30 END ATOM
M  V30 BEGIN BOND
M  V30 1 1 1 2
M  V30 2 1 1 3
M  V30 3 1 1 4
M  V30 4 1 1 5
M  V30 5 1 6 7
M  V30 6 1 6 8
M  V30 7 1 6 9
M  V30 8 1 6 10
M  V30 9 1 11 12
M  V30 10 1 11 13
M  V30 11 1 11 14
M  V30 12 1 11 15
M  V30 13 1 16 17
M  V30 14 1 16 18
M  V30 15 1 16 19
M  V30 16 1 16 20
M  V30 17 1 21 22
M  V30 18 1 21 23
M  V30 19 1 21 24
M  V30 20 1 21 25
M  V30 21 1 26 27
M  V30 22 1 26 28
M  V30 23 1 26 29
M  V30 24 1 26 30
M  V30 25 1 31 32
M  V30 26 1 31 33
M  V30 27 1 31 34
M  V30 28 1 31 35
M  V30 29 1 36 37
M  V30 30 1 36 38
M  V30 31 1 36 39
M  V30 32 1 36 40
M  V30 33 1 41 42
M  V30 34 1 41 43
M  V30 35 1 41 44
M  V30 36 1 41 45
M  V30 37 1 46 47
M  V30 38 1 47 48
M  V30 39 1 49 50
M  V30 40 1 50 51
M  V30 41 1 52 53
M  V30 42 1 53 54
M  V30 43 1 55 56
M  V30 44 1 56 57
M  V30 45 1 58 59
M  V30 46 1 59 60
M  V30 47 1 61 62
M  V30 48 1 62 63
M  V30 49 1 64 65
M  V30 50 1 65 66
M  V30 51 1 67 68
M  V30 52 1 68 69
M  V30 53 1 70 71
M  V30 54 1 71 72
M  V30 55 1 73 74
M  V30 56 1 74 75
M  V30 57 1 76 77
M  V30 58 1 77 78
M  V30 59 1 79 80
M  V30 60 1 80 81
M  V30 61 1 82 83
M  V30 62 1 83 84
M  V30 63 1 85 86
M  V30 64 1 86 87
M  V30 65 1 88 89
M  V30 66 1 89 90
M  V30 67 1 91 92
M  V30 68 1 92 93
M  V30 69 1 94 95
M  V30 70 1 95 96
M  V30 71 1 97 98
M  V30 72 1 98 99
M  V30 73 1 2 91
M  V30 74 1 3 70
M  V30 75 1 4 97
M  V30 76 1 5 46
M  V30 77 1 7 88
M  V30 78 1 8 85
M  V30 79 1 9 99
M  V30 80 1 10 49
M  V30 81 1 12 76
M  V30 82 1 13 87
M  V30 83 1 14 61
M  V30 84 1 15 90
M  V30 85 1 17 67
M  V30 86 1 18 73
M  V30 87 1 19 79
M  V30 88 1 20 93
M  V30 89 1 22 58
M  V30 90 1 23 52
M  V30 91 1 24 78
M  V30 92 1 25 55
M  V30 93 1 27 81
M  V30 94 1 28 69
M  V30 95 1 29 63
M  V30 96 1 30 51
M  V30 97 1 32 64
M  V30 98 1 33 82
M  V30 99 1 34 94
M  V30 100 1 35 72
M  V30 101 1 37 84
M  V30 102 1 38 57
M  V30 103 1 39 48
M  V30 104 1 40 60
M  V30 105 1 42 75
M  V30 106 1 43 96
M  V30 107 1 44 66
M  V30 108 1 45 54
M  V30 END BOND
M  V30 END CTAB
M  END

$$$$
