
     RDKit          3D

  0  0  0  0  0  0  0  0  0  0999 V3000
M  V30 BEGIN CTAB
M  V30 COUNTS 99 108 0 0 0
M  V30 BEGIN ATOM
M  V30 1 Pd -3.1285 -0.1299 -0.0860 0
M  V30 2 Pb -3.8838 0.3517 -0.5288 0
M  V30 3 Pb -2.4000 -0.7026 0.2970 0
M  V30 4 Pb -3.7459 -0.5137 0.6021 0
M  V30 5 Pb -2.5168 0.2768 -0.7700 0
M  V30 6 Pd 3.3207 3.6776 5.2519 0
M  V30 7 Pb 4.0211 4.0802 4.6622 0
M  V30 8 Pb 2.5691 3.2210 5.7523 0
M  V30 9 Pb 2.7068 4.4217 4.9982 0
M  V30 10 Pb 3.9040 2.8989 5.4687 0
M  V30 11 Pd 0.7114 -0.8604 -5.7952 0
M  V30 12 Pb 0.0707 -1.5826 -6.0591 0
M  V30 13 Pb 1.3392 -0.1389 -5.5053 0
M  V30 14 Pb 1.4182 -1.5256 -5.5536 0
M  V30 15 Pb 0.0036 -0.1866 -6.0100 0
M  V30 16 Pd 3.4766 -4.1449 0.1732 0
M  V30 17 Pb 3.7720 -4.1068 -0.7797 0
M  V30 18 Pb 3.0462 -4.1408 1.0773 0
M  V30 19 Pb 4.0591 -3.3621 0.3992 0
M  V30 20 Pb 2.8595 -4.8951 -0.0555 0
M  V30 21 Pd 4.2900 3.4808 -0.2177 0
M  V30 22 Pb 4.5948 3.9164 0.6358 0
M  V30 23 Pb 4.0646 3.0900 -1.1113 0
M  V30 24 Pb 4.7058 2.6181 0.0757 0
M  V30 25 Pb 3.8288 4.3122 -0.5325 0
M  V30 26 Pd -3.3976 -4.9146 1.4613 0
M  V30 27 Pb -2.6575 -4.7894 2.1253 0
M  V30 28 Pb -4.0611 -4.9626 0.7162 0
M  V30 29 Pb -3.9403 -4.1838 1.8708 0
M  V30 30 Pb -2.8043 -5.5724 1.0039 0
M  V30 31 Pd -4.3173 -1.0997 -4.7653 0
M  V30 32 Pb -4.8042 -0.4394 -4.1916 0
M  V30 33 Pb -4.7551 -1.8508 -4.2703 0
M  V30 34 Pb -3.8379 -0.3578 -5.2334 0
M  V30 35 Pb -3.7797 -1.7539 -5.2987 0
M  V30 36 Pd -0.8123 4.5911 -0.4034 0
M  V30 37 Pb -0.0487 5.0580 -0.8521 0
M  V30 38 Pb -1.5065 4.1002 0.1182 0
M  V30 39 Pb -0.7006 5.2171 0.3637 0
M  V30 40 Pb -0.8615 3.8807 -1.1069 0
M  V30 41 Pd -0.2432 -0.6238 4.4991 0
M  V30 42 Pb -0.0575 0.0742 5.2066 0
M  V30 43 Pb -0.3530 -1.2361 3.7182 0
M  V30 44 Pb -1.0216 -0.0996 4.1604 0
M  V30 45 Pb 0.5792 -1.1033 4.7946 0
M  V30 46 Ag 4.4821 -2.7598 0.5512 0
M  V30 47 Fe 4.7657 -0.4026 0.4369 0
M  V30 48 Ag 4.9936 1.9589 0.2936 0
M  V30 49 Ag 2.6056 -4.1594 1.6860 0
M  V30 50 Fe 0.3182 -4.4100 2.2849 0
M  V30 51 Ag -2.0306 -4.6889 2.5289 0
M  V30 52 Ag 4.1794 2.2213 5.5984 0
M  V30 53 Fe 3.1052 0.1268 5.4462 0
M  V30 54 Ag 1.2650 -1.2846 5.0150 0
M  V30 55 Ag 2.3373 -5.4143 -0.1841 0
M  V30 56 Fe 0.0368 -5.8753 0.1569 0
M  V30 57 Ag -2.2744 -5.9821 0.6744 0
M  V30 58 Ag 1.9662 -1.9863 -5.3293 0
M  V30 59 Fe 3.0099 -3.0677 -3.4912 0
M  V30 60 Ag 3.8880 -4.0518 -1.5171 0
M  V30 61 Ag 2.2329 4.9406 4.7447 0
M  V30 62 Fe 0.7873 5.4433 2.9349 0
M  V30 63 Ag -0.5442 5.6055 0.9810 0
M  V30 64 Ag -1.9554 3.7025 0.5637 0
M  V30 65 Fe -1.9187 2.0105 2.2247 0
M  V30 66 Ag -1.5561 0.3148 3.8422 0
M  V30 67 Ag -4.5123 -4.9221 0.1199 0
M  V30 68 Fe -4.8739 -3.7308 -1.9020 0
M  V30 69 Ag -5.0492 -2.4129 -3.8695 0
M  V30 70 Ag 1.8263 0.3814 -5.2738 0
M  V30 71 Fe 2.8465 1.5998 -3.5082 0
M  V30 72 Ag 3.9273 2.8687 -1.8159 0
M  V30 73 Ba 4.5091 4.3831 4.1791 0
M  V30 74 Ga 4.6811 4.3022 2.7119 0
M  V30 75 Ba 4.8865 4.2502 1.2478 0
M  V30 76 Ba -4.4361 0.6631 -0.9280 0
M  V30 77 Ga -4.8334 0.3994 -2.3240 0
M  V30 78 Ba -5.1337 0.0486 -3.7253 0
M  V30 79 Ba 3.4487 4.8889 -0.8298 0
M  V30 80 Ga 2.0073 5.1779 -0.9824 0
M  V30 81 Ba 0.5555 5.4237 -1.1093 0
M  V30 82 Ba -0.5491 0.2988 -6.1586 0
M  V30 83 Ga -1.9984 0.2713 -5.8850 0
M  V30 84 Ba -3.4379 0.1745 -5.5778 0
M  V30 85 Ba 1.9988 2.8718 6.1176 0
M  V30 86 Ga 1.0651 1.7324 5.8913 0
M  V30 87 Ba 0.1030 0.6061 5.7272 0
M  V30 88 Ba -0.4428 -2.0975 -6.2469 0
M  V30 89 Ga -1.8922 -2.1932 -5.9834 0
M  V30 90 Ba -3.3371 -2.2238 -5.6820 0
M  V30 91 Ba -4.1825 -0.8195 1.1311 0
M  V30 92 Ga -4.2935 -2.1924 1.6571 0
M  V30 93 Ba -4.3306 -3.5936 2.1141 0
M  V30 94 Ba -2.0985 0.6112 -1.3007 0
M  V30 95 Ga -1.4871 1.9490 -1.4566 0
M  V30 96 Ba -0.8877 3.2957 -1.5780 0
M  V30 97 Ba -1.9032 -1.1964 0.5738 0
M  V30 98 Ga -1.1615 -1.4129 1.8321 0
M  V30 99 Ba -0.4148 -1.6338 3.0867 0
M  V30 END ATOM
M  V30 BEGIN BOND
M  V30 1 1 1 2
M  V30 2 1 1 3
M  V30 3 1 1 4
M  V30 4 1 1 5
M  V30 5 1 6 7
M  V30 6 1 6 8
M  V30 7 1 6 9
M  V30 8 1 6 10
M  V30 9 1 11 12
M  V30 10 1 11 13
M  V30 11 1 11 14
M  V30 12 1 11 15
M  V30 13 1 16 17
M  V30 14 1 16 18
M  V30 15 1 16 19
M  V30 16 1 16 20
M  V30 17 1 21 22
M  V30 18 1 21 23
M  V30 19 1 21 24
M  V30 20 1 21 25
M  V30 21 1 26 27
M  V30 22 1 26 28
M  V30 23 1 26 29
M  V30 24 1 26 30
M  V30 25 1 31 32
M  V30 26 1 31 33
M  V30 27 1 31 34
M  V30 28 1 31 35
M  V30 29 1 36 37
M  V30 30 1 36 38
M  V30 31 1 36 39
M  V30 32 1 36 40
M  V30 33 1 41 42
M  V30 34 1 41 43
M  V30 35 1 41 44
M  V30 36 1 41 45
M  V30 37 1 46 47
M  V30 38 1 47 48
M  V30 39 1 49 50
M  V30 40 1 50 51
M  V30 41 1 52 53
M  V30 42 1 53 54
M  V30 43 1 55 56
M  V30 44 1 56 57
M  V30 45 1 58 59
M  V30 46 1 59 60
M  V30 47 1 61 62
M  V30 48 1 62 63
M  V30 49 1 64 65
M  V30 50 1 65 66
M  V30 51 1 67 68
M  V30 52 1 68 69
M  V30 53 1 70 71
M  V30 54 1 71 72
M  V30 55 1 73 74
M  V30 56 1 74 75
M  V30 57 1 76 77
M  V30 58 1 77 78
M  V30 59 1 79 80
M  V30 60 1 80 81
M  V30 61 1 82 83
M  V30 62 1 83 84
M  V30 63 1 85 86
M  V30 64 1 86 87
M  V30 65 1 88 89
M  V30 66 1 89 90
M  V30 67 1 91 92
M  V30 68 1 92 93
M  V30 69 1 94 95
M  V30 70 1 95 96
M  V30 71 1 97 98
M  V30 72 1 98 99
M  V30 73 1 2 76
M  V30 74 1 3 97
M  V30 75 1 4 91
M  V30 76 1 5 94
M  V30 77 1 7 73
M  V30 78 1 8 85
M  V30 79 1 9 61
M  V30 80 1 10 52
M  V30 81 1 12 88
M  V30 82 1 13 70
M  V30 83 1 14 58
M  V30 84 1 15 82
M  V30 85 1 17 60
M  V30 86 1 18 49
M  V30 87 1 19 46
M  V30 88 1 20 55
M  V30 89 1 22 75
M  V30 90 1 23 72
M  V30 91 1 24 48
M  V30 92 1 25 79
M  V30 93 1 27 51
M  V30 94 1 28 67
M  V30 95 1 29 93
M  V30 96 1 30 57
M  V30 97 1 32 78
M  V30 98 1 33 69
M  V30 99 1 34 84
M  V30 100 1 35 90
M  V30 101 1 37 81
M  V30 102 1 38 64
M  V30 103 1 39 63
M  V30 104 1 40 96
M  V30 105 1 42 87
M  V30 106 1 43 99
M  V30 107 1 44 66
M  V30 108 1 45 54
M  V30 END BOND
M  V30 END CTAB
M  END

$$$$
