
     RDKit          3D

  0  0  0  0  0  0  0  0  0  0999 V3000
M  V30 BEGIN CTAB
M  V30 COUNTS 99 108 0 0 0
M  V30 BEGIN ATOM
M  V30 1 Pd -1.0127 -3.8446 3.7644 0
M  V30 2 Pb -1.3496 -4.4168 3.0153 0
M  V30 3 Pb -0.1152 -4.2743 3.6658 0
M  V30 4 Pb -1.9158 -3.4227 3.8769 0
M  V30 5 Pb -0.6219 -3.2495 4.4623 0
M  V30 6 Pd -1.2046 -1.0108 -5.4200 0
M  V30 7 Pb -0.9177 -1.9667 -5.4382 0
M  V30 8 Pb -1.4533 -0.0410 -5.3882 0
M  V30 9 Pb -1.1088 -0.9201 -6.4115 0
M  V30 10 Pb -1.1917 -1.0927 -4.4226 0
M  V30 11 Pd 1.8675 2.0872 -6.8351 0
M  V30 12 Pb 2.6874 1.5262 -6.9345 0
M  V30 13 Pb 1.4094 1.6017 -7.5787 0
M  V30 14 Pb 0.9961 2.5184 -6.6131 0
M  V30 15 Pb 2.2852 2.4698 -6.0124 0
M  V30 16 Pd 2.8759 1.7892 2.7777 0
M  V30 17 Pb 2.5364 2.6364 3.1847 0
M  V30 18 Pb 2.7371 1.3568 3.6643 0
M  V30 19 Pb 2.8790 2.1693 1.8505 0
M  V30 20 Pb 3.2317 0.9132 2.4470 0
M  V30 21 Pd 1.6355 -5.6496 -0.4145 0
M  V30 22 Pb 1.3609 -5.6289 -1.3757 0
M  V30 23 Pb 2.5956 -5.5421 -0.6818 0
M  V30 24 Pb 0.6769 -5.7483 -0.1357 0
M  V30 25 Pb 1.8972 -5.6455 0.5488 0
M  V30 26 Pd -4.6354 0.9483 3.4290 0
M  V30 27 Pb -4.3731 -0.0044 3.6166 0
M  V30 28 Pb -5.0605 1.8388 3.2776 0
M  V30 29 Pb -4.6563 0.7893 2.4388 0
M  V30 30 Pb -4.5494 1.1930 4.4008 0
M  V30 31 Pd 4.9211 -1.4710 -1.5728 0
M  V30 32 Pb 4.7523 -0.4891 -1.6520 0
M  V30 33 Pb 5.1024 -1.4611 -2.5570 0
M  V30 34 Pb 5.0484 -2.4632 -1.5285 0
M  V30 35 Pb 4.7199 -1.4608 -0.5941 0
M  V30 36 Pd -3.2651 5.4156 4.9678 0
M  V30 37 Pb -3.0439 5.9386 4.1519 0
M  V30 38 Pb -3.4673 4.7170 5.6573 0
M  V30 39 Pb -4.1874 5.3096 4.6163 0
M  V30 40 Pb -2.2971 5.4549 5.2027 0
M  V30 41 Pd -1.1249 1.9508 -0.6877 0
M  V30 42 Pb -0.9530 1.0050 -0.9546 0
M  V30 43 Pb -0.1520 2.1950 -0.7547 0
M  V30 44 Pb -2.0878 1.6834 -0.5764 0
M  V30 45 Pb -1.3220 2.9000 -0.4486 0
M  V30 46 Ag 3.2672 1.0568 -6.8710 0
M  V30 47 Fe 4.3575 -0.2308 -5.2003 0
M  V30 48 Ag 5.1980 -1.3747 -3.2966 0
M  V30 49 Ag 2.2773 3.2179 3.5808 0
M  V30 50 Fe 0.4158 4.3997 4.4595 0
M  V30 51 Ag -1.5511 5.4693 5.2473 0
M  V30 52 Ag -0.6791 -2.6718 -5.3630 0
M  V30 53 Fe 0.2366 -4.2070 -3.8013 0
M  V30 54 Ag 1.1444 -5.5814 -2.0919 0
M  V30 55 Ag -2.8525 6.1597 3.4685 0
M  V30 56 Fe -2.1381 5.0615 1.4946 0
M  V30 57 Ag -1.4596 3.6083 -0.2502 0
M  V30 58 Ag -0.2544 -2.7798 4.9114 0
M  V30 59 Fe 1.1663 -0.8859 4.8158 0
M  V30 60 Ag 2.5247 0.9769 4.2697 0
M  V30 61 Ag 2.6054 2.6415 -5.3579 0
M  V30 62 Fe 3.6345 1.5958 -3.4922 0
M  V30 63 Ag 4.6003 0.2272 -1.8105 0
M  V30 64 Ba -4.6664 0.7371 1.6871 0
M  V30 65 Ga -3.7201 1.0835 0.6012 0
M  V30 66 Ba -2.7932 1.4226 -0.5035 0
M  V30 67 Ba -0.9679 -0.7880 -7.1362 0
M  V30 68 Ga -0.0024 0.1748 -7.6968 0
M  V30 69 Ba 1.0081 1.1864 -8.0559 0
M  V30 70 Ba 0.5568 -4.5989 3.5924 0
M  V30 71 Ga 1.3279 -5.1182 2.4491 0
M  V30 72 Ba 2.0644 -5.6250 1.2778 0
M  V30 73 Ba -1.5552 -4.8391 2.4290 0
M  V30 74 Ga -0.8130 -5.3384 1.2522 0
M  V30 75 Ba -0.0385 -5.8199 0.0887 0
M  V30 76 Ba -4.4649 1.4426 5.1097 0
M  V30 77 Ga -4.0585 2.7627 5.6495 0
M  V30 78 Ba -3.6427 4.1191 6.0808 0
M  V30 79 Ba -1.1052 -1.2149 -3.6862 0
M  V30 80 Ga -1.0016 -0.4428 -2.4341 0
M  V30 81 Ba -0.8937 0.2875 -1.1574 0
M  V30 82 Ba -5.4368 2.4833 3.2164 0
M  V30 83 Ga -5.1973 3.8412 3.7213 0
M  V30 84 Ba -4.8268 5.1491 4.2750 0
M  V30 85 Ba 3.3183 -5.4650 -0.8766 0
M  V30 86 Ga 4.2191 -4.3352 -1.1859 0
M  V30 87 Ba 5.1253 -3.2100 -1.4963 0
M  V30 88 Ba 2.8258 2.4096 1.1392 0
M  V30 89 Ga 1.7076 2.4132 0.1681 0
M  V30 90 Ba 0.5732 2.4047 -0.7840 0
M  V30 91 Ba -1.5890 0.6977 -5.4143 0
M  V30 92 Ga -0.7111 1.7842 -5.8854 0
M  V30 93 Ba 0.3110 2.7179 -6.3912 0
M  V30 94 Ba -2.6089 -3.1482 3.9810 0
M  V30 95 Ga -3.3778 -1.8898 3.8514 0
M  V30 96 Ba -4.3039 -0.7370 3.7892 0
M  V30 97 Ba 3.4997 0.2284 2.2903 0
M  V30 98 Ga 4.0269 -0.5806 1.1745 0
M  V30 99 Ba 4.5679 -1.4825 0.1392 0
M  V30 END ATOM
M  V30 BEGIN BOND
M  V30 1 1 1 2
M  V30 2 1 1 3
M  V30 3 1 1 4
M  V30 4 1 1 5
M  V30 5 1 6 7
M  V30 6 1 6 8
M  V30 7 1 6 9
M  V30 8 1 6 10
M  V30 9 1 11 12
M  V30 10 1 11 13
M  V30 11 1 11 14
M  V30 12 1 11 15
M  V30 13 1 16 17
M  V30 14 1 16 18
M  V30 15 1 16 19
M  V30 16 1 16 20
M  V30 17 1 21 22
M  V30 18 1 21 23
M  V30 19 1 21 24
M  V30 20 1 21 25
M  V30 21 1 26 27
M  V30 22 1 26 28
M  V30 23 1 26 29
M  V30 24 1 26 30
M  V30 25 1 31 32
M  V30 26 1 31 33
M  V30 27 1 31 34
M  V30 28 1 31 35
M  V30 29 1 36 37
M  V30 30 1 36 38
M  V30 31 1 36 39
M  V30 32 1 36 40
M  V30 33 1 41 42
M  V30 34 1 41 43
M  V30 35 1 41 44
M  V30 36 1 41 45
M  V30 37 1 46 47
M  V30 38 1 47 48
M  V30 39 1 49 50
M  V30 40 1 50 51
M  V30 41 1 52 53
M  V30 42 1 53 54
M  V30 43 1 55 56
M  V30 44 1 56 57
M  V30 45 1 58 59
M  V30 46 1 59 60
M  V30 47 1 61 62
M  V30 48 1 62 63
M  V30 49 1 64 65
M  V30 50 1 65 66
M  V30 51 1 67 68
M  V30 52 1 68 69
M  V30 53 1 70 71
M  V30 54 1 71 72
M  V30 55 1 73 74
M  V30 56 1 74 75
M  V30 57 1 76 77
M  V30 58 1 77 78
M  V30 59 1 79 80
M  V30 60 1 80 81
M  V30 61 1 82 83
M  V30 62 1 83 84
M  V30 63 1 85 86
M  V30 64 1 86 87
M  V30 65 1 88 89
M  V30 66 1 89 90
M  V30 67 1 91 92
M  V30 68 1 92 93
M  V30 69 1 94 95
M  V30 70 1 95 96
M  V30 71 1 97 98
M  V30 72 1 98 99
M  V30 73 1 2 73
M  V30 74 1 3 70
M  V30 75 1 4 94
M  V30 76 1 5 58
M  V30 77 1 7 52
M  V30 78 1 8 91
M  V30 79 1 9 67
M  V30 80 1 10 79
M  V30 81 1 12 46
M  V30 82 1 13 69
M  V30 83 1 14 93
M  V30 84 1 15 61
M  V30 85 1 17 49
M  V30 86 1 18 60
M  V30 87 1 19 88
M  V30 88 1 20 97
M  V30 89 1 22 54
M  V30 90 1 23 85
M  V30 91 1 24 75
M  V30 92 1 25 72
M  V30 93 1 27 96
M  V30 94 1 28 82
M  V30 95 1 29 64
M  V30 96 1 30 76
M  V30 97 1 32 63
M  V30 98 1 33 48
M  V30 99 1 34 87
M  V30 100 1 35 99
M  V30 101 1 37 55
M  V30 102 1 38 78
M  V30 103 1 39 84
M  V30 104 1 40 51
M  V30 105 1 42 81
M  V30 106 1 43 90
M  V30 107 1 44 66
M  V30 108 1 45 57
M  V30 END BOND
M  V30 END CTAB
M  END

$$$$
