
     RDKit          3D

  0  0  0  0  0  0  0  0  0  0999 V3000
M  V30 BEGIN CTAB
M  V30 COUNTS 99 108 0 0 0
M  V30 BEGIN ATOM
M  V30 1 Pd -1.4517 1.1917 4.5700 0
M  V30 2 Pb -0.5620 1.5079 4.9034 0
M  V30 3 Pb -1.1417 0.2758 4.8271 0
M  V30 4 Pb -1.7834 2.1252 4.4073 0
M  V30 5 Pb -2.3183 0.8413 4.2079 0
M  V30 6 Pd 0.3774 -7.5461 -1.9924 0
M  V30 7 Pb 0.7304 -6.8977 -2.6697 0
M  V30 8 Pb 1.1676 -7.4157 -1.3889 0
M  V30 9 Pb -0.5203 -7.5976 -2.4233 0
M  V30 10 Pb 0.0402 -8.1970 -1.3205 0
M  V30 11 Pd 3.8107 1.9478 -2.6543 0
M  V30 12 Pb 3.7774 1.4055 -1.8084 0
M  V30 13 Pb 3.7596 1.1205 -3.2209 0
M  V30 14 Pb 3.8410 2.5174 -3.4786 0
M  V30 15 Pb 3.9247 2.7739 -2.1077 0
M  V30 16 Pd 0.5489 5.6923 -4.6541 0
M  V30 17 Pb 1.4519 5.3719 -4.9450 0
M  V30 18 Pb -0.3453 5.9862 -4.3176 0
M  V30 19 Pb 0.1478 4.8583 -5.0234 0
M  V30 20 Pb 0.9204 6.5092 -4.2123 0
M  V30 21 Pd 0.3234 -2.0964 -4.4754 0
M  V30 22 Pb 0.6357 -3.0412 -4.3402 0
M  V30 23 Pb 1.2790 -1.8261 -4.6014 0
M  V30 24 Pb 0.0243 -1.1796 -4.7331 0
M  V30 25 Pb -0.6400 -2.3075 -4.3072 0
M  V30 26 Pd -1.2963 8.3149 1.5711 0
M  V30 27 Pb -1.9312 8.1763 0.8141 0
M  V30 28 Pb -0.5868 8.3436 2.2689 0
M  V30 29 Pb -1.8487 7.7454 2.1794 0
M  V30 30 Pb -0.6777 8.7412 0.9111 0
M  V30 31 Pd 3.3586 3.2005 2.5929 0
M  V30 32 Pb 3.0100 2.7742 3.4286 0
M  V30 33 Pb 3.2421 4.0835 3.0417 0
M  V30 34 Pb 3.6648 3.6753 1.7713 0
M  V30 35 Pb 3.4489 2.3249 2.1089 0
M  V30 36 Pd -5.2847 -4.0458 0.3513 0
M  V30 37 Pb -5.1318 -3.5746 -0.5154 0
M  V30 38 Pb -5.3479 -4.5361 1.2218 0
M  V30 39 Pb -5.1657 -4.8789 -0.1896 0
M  V30 40 Pb -5.3408 -3.1900 0.8685 0
M  V30 41 Pd -0.4254 -6.6415 4.7588 0
M  V30 42 Pb 0.4766 -6.6722 4.3200 0
M  V30 43 Pb -0.2447 -5.7385 5.1439 0
M  V30 44 Pb -1.3931 -6.5647 4.9901 0
M  V30 45 Pb -0.6205 -7.5068 4.3114 0
M  V30 46 Ag -1.3764 -2.3589 -4.1689 0
M  V30 47 Fe -3.1884 -2.8240 -2.7054 0
M  V30 48 Ag -4.9545 -3.3137 -1.1946 0
M  V30 49 Ag -0.1534 4.2166 -5.2575 0
M  V30 50 Fe -0.1787 1.8487 -5.1178 0
M  V30 51 Ag -0.2190 -0.5196 -4.9886 0
M  V30 52 Ag -0.9758 6.2298 -3.9943 0
M  V30 53 Fe -1.8229 7.1390 -1.9729 0
M  V30 54 Ag -2.2935 8.0196 0.1794 0
M  V30 55 Ag -0.1938 -8.6351 -0.7670 0
M  V30 56 Fe -0.5487 -8.6054 1.5708 0
M  V30 57 Ag -0.7397 -8.0922 3.8709 0
M  V30 58 Ag 1.6428 -7.3135 -0.8126 0
M  V30 59 Fe 1.5621 -6.9990 1.5459 0
M  V30 60 Ag 1.0716 -6.7098 3.8577 0
M  V30 61 Ag 1.1009 7.1132 -3.8057 0
M  V30 62 Fe 0.5640 8.1781 -1.7516 0
M  V30 63 Ag -0.2131 8.9437 0.3582 0
M  V30 64 Ag -1.2542 -7.6105 -2.5668 0
M  V30 65 Fe -3.2406 -6.6105 -1.7352 0
M  V30 66 Ag -5.0069 -5.4253 -0.6796 0
M  V30 67 Ag -2.0813 2.8136 4.3284 0
M  V30 68 Fe -2.1497 5.0332 3.4781 0
M  V30 69 Ag -2.2020 7.2495 2.6179 0
M  V30 70 Ag -2.9656 0.5942 3.9144 0
M  V30 71 Fe -4.1717 -0.9780 2.6008 0
M  V30 72 Ag -5.3562 -2.5634 1.2835 0
M  V30 73 Ag -5.3233 -4.8595 1.8993 0
M  V30 74 Fe -3.8648 -5.7142 3.5673 0
M  V30 75 Ag -2.1376 -6.4897 5.0004 0
M  V30 76 Ag -0.8646 -0.3672 5.0985 0
M  V30 77 Fe -0.5240 -2.7146 5.2115 0
M  V30 78 Ag -0.1239 -5.0474 5.4042 0
M  V30 79 Ag -0.0167 8.2458 2.7382 0
M  V30 80 Fe 1.6324 6.6079 3.1967 0
M  V30 81 Ag 3.0985 4.7521 3.3420 0
M  V30 82 Ba 1.0325 -6.4445 -3.1876 0
M  V30 83 Ga 0.9191 -5.0631 -3.7030 0
M  V30 84 Ba 0.9459 -3.7289 -4.3394 0
M  V30 85 Ba 0.1281 1.6571 5.1618 0
M  V30 86 Ga 1.4223 2.0984 4.6027 0
M  V30 87 Ba 2.7352 2.5360 4.0859 0
M  V30 88 Ba 4.0428 3.3913 -1.7038 0
M  V30 89 Ga 3.9562 3.7246 -0.2737 0
M  V30 90 Ba 3.8674 4.0508 1.1579 0
M  V30 91 Ba 3.7539 1.0142 -1.1625 0
M  V30 92 Ga 3.6342 1.3513 0.2759 0
M  V30 93 Ba 3.5146 1.6843 1.7153 0
M  V30 94 Ba 3.8689 2.9706 -4.0786 0
M  V30 95 Ga 2.9981 4.0327 -4.6243 0
M  V30 96 Ba 2.1162 5.0920 -5.1575 0
M  V30 97 Ba 3.7726 0.5129 -3.6672 0
M  V30 98 Ga 2.8592 -0.5415 -4.1566 0
M  V30 99 Ba 1.9975 -1.6222 -4.6812 0
M  V30 END ATOM
M  V30 BEGIN BOND
M  V30 1 1 1 2
M  V30 2 1 1 3
M  V30 3 1 1 4
M  V30 4 1 1 5
M  V30 5 1 6 7
M  V30 6 1 6 8
M  V30 7 1 6 9
M  V30 8 1 6 10
M  V30 9 1 11 12
M  V30 10 1 11 13
M  V30 11 1 11 14
M  V30 12 1 11 15
M  V30 13 1 16 17
M  V30 14 1 16 18
M  V30 15 1 16 19
M  V30 16 1 16 20
M  V30 17 1 21 22
M  V30 18 1 21 23
M  V30 19 1 21 24
M  V30 20 1 21 25
M  V30 21 1 26 27
M  V30 22 1 26 28
M  V30 23 1 26 29
M  V30 24 1 26 30
M  V30 25 1 31 32
M  V30 26 1 31 33
M  V30 27 1 31 34
M  V30 28 1 31 35
M  V30 29 1 36 37
M  V30 30 1 36 38
M  V30 31 1 36 39
M  V30 32 1 36 40
M  V30 33 1 41 42
M  V30 34 1 41 43
M  V30 35 1 41 44
M  V30 36 1 41 45
M  V30 37 1 46 47
M  V30 38 1 47 48
M  V30 39 1 49 50
M  V30 40 1 50 51
M  V30 41 1 52 53
M  V30 42 1 53 54
M  V30 43 1 55 56
M  V30 44 1 56 57
M  V30 45 1 58 59
M  V30 46 1 59 60
M  V30 47 1 61 62
M  V30 48 1 62 63
M  V30 49 1 64 65
M  V30 50 1 65 66
M  V30 51 1 67 68
M  V30 52 1 68 69
M  V30 53 1 70 71
M  V30 54 1 71 72
M  V30 55 1 73 74
M  V30 56 1 74 75
M  V30 57 1 76 77
M  V30 58 1 77 78
M  V30 59 1 79 80
M  V30 60 1 80 81
M  V30 61 1 82 83
M  V30 62 1 83 84
M  V30 63 1 85 86
M  V30 64 1 86 87
M  V30 65 1 88 89
M  V30 66 1 89 90
M  V30 67 1 91 92
M  V30 68 1 92 93
M  V30 69 1 94 95
M  V30 70 1 95 96
M  V30 71 1 97 98
M  V30 72 1 98 99
M  V30 73 1 2 85
M  V30 74 1 3 76
M  V30 75 1 4 67
M  V30 76 1 5 70
M  V30 77 1 7 82
M  V30 78 1 8 58
M  V30 79 1 9 64
M  V30 80 1 10 55
M  V30 81 1 12 91
M  V30 82 1 13 97
M  V30 83 1 14 94
M  V30 84 1 15 88
M  V30 85 1 17 96
M  V30 86 1 18 52
M  V30 87 1 19 49
M  V30 88 1 20 61
M  V30 89 1 22 84
M  V30 90 1 23 99
M  V30 91 1 24 51
M  V30 92 1 25 46
M  V30 93 1 27 54
M  V30 94 1 28 79
M  V30 95 1 29 69
M  V30 96 1 30 63
M  V30 97 1 32 87
M  V30 98 1 33 81
M  V30 99 1 34 90
M  V30 100 1 35 93
M  V30 101 1 37 48
M  V30 102 1 38 73
M  V30 103 1 39 66
M  V30 104 1 40 72
M  V30 105 1 42 60
M  V30 106 1 43 78
M  V30 107 1 44 75
M  V30 108 1 45 57
M  V30 END BOND
M  V30 END CTAB
M  END

$$$$
