
     RDKit          3D

  0  0  0  0  0  0  0  0  0  0999 V3000
M  V30 BEGIN CTAB
M  V30 COUNTS 99 108 0 0 0
M  V30 BEGIN ATOM
M  V30 1 Pd -1.8607 4.0881 -2.1755 0
M  V30 2 Pb -1.5605 3.3524 -2.7676 0
M  V30 3 Pb -2.7515 3.9508 -2.5482 0
M  V30 4 Pb -0.9479 4.2979 -1.8138 0
M  V30 5 Pb -2.2397 4.7613 -1.5518 0
M  V30 6 Pd -0.9607 -4.7083 -0.3872 0
M  V30 7 Pb -0.1022 -4.3763 0.0819 0
M  V30 8 Pb -1.0892 -5.3348 0.3759 0
M  V30 9 Pb -0.9740 -4.2209 -1.2376 0
M  V30 10 Pb -1.8241 -4.9798 -0.8054 0
M  V30 11 Pd 2.7851 5.1576 1.7746 0
M  V30 12 Pb 2.2624 5.0130 0.9455 0
M  V30 13 Pb 3.1733 5.4432 2.6664 0
M  V30 14 Pb 2.7158 6.1380 1.6156 0
M  V30 15 Pb 3.0134 4.1419 1.8606 0
M  V30 16 Pd 1.1471 -1.8108 4.4045 0
M  V30 17 Pb 1.5285 -2.2437 3.5865 0
M  V30 18 Pb 0.7600 -1.0794 4.9414 0
M  V30 19 Pb 0.2783 -2.3277 4.3108 0
M  V30 20 Pb 2.0090 -1.6206 4.8335 0
M  V30 21 Pd -4.9043 -2.1518 -3.2865 0
M  V30 22 Pb -4.7863 -3.1045 -2.9496 0
M  V30 23 Pb -5.4245 -2.3077 -4.1149 0
M  V30 24 Pb -4.2577 -2.7575 -3.7624 0
M  V30 25 Pb -5.2657 -1.2084 -3.2446 0
M  V30 26 Pd 3.7309 -1.3155 1.7721 0
M  V30 27 Pb 3.3155 -2.2540 1.7835 0
M  V30 28 Pb 3.8719 -0.3001 1.7824 0
M  V30 29 Pb 3.9468 -1.4853 0.8320 0
M  V30 30 Pb 4.1274 -1.3816 2.6658 0
M  V30 31 Pd -0.3311 5.9990 4.8349 0
M  V30 32 Pb -1.0529 5.8795 4.1591 0
M  V30 33 Pb 0.6008 6.1795 5.2039 0
M  V30 34 Pb -0.2076 5.0223 4.9375 0
M  V30 35 Pb -0.5101 6.9771 4.8004 0
M  V30 36 Pd 1.9440 -3.4485 -1.5730 0
M  V30 37 Pb 2.8039 -3.8902 -1.4630 0
M  V30 38 Pb 1.9684 -3.0758 -0.6503 0
M  V30 39 Pb 1.9242 -3.6956 -2.5229 0
M  V30 40 Pb 1.0651 -3.0597 -1.8027 0
M  V30 41 Pd -1.8915 -1.4709 -4.8415 0
M  V30 42 Pb -2.1255 -2.4170 -4.7368 0
M  V30 43 Pb -0.9667 -1.7452 -4.5779 0
M  V30 44 Pb -2.6962 -1.3458 -5.3899 0
M  V30 45 Pb -1.6811 -0.5007 -4.7919 0
M  V30 46 Ag 2.6613 6.8811 1.6432 0
M  V30 47 Fe 1.4697 8.0269 3.2789 0
M  V30 48 Ag -0.4054 7.6977 4.6461 0
M  V30 49 Ag -3.4247 3.7587 -2.7951 0
M  V30 50 Fe -4.4146 1.6829 -3.3098 0
M  V30 51 Ag -5.4121 -0.4723 -3.2829 0
M  V30 52 Ag -1.2319 -5.6640 1.0228 0
M  V30 53 Fe -0.6823 -4.9151 3.1800 0
M  V30 54 Ag -0.1622 -2.9225 4.3204 0
M  V30 55 Ag -3.6199 -3.0277 -4.0468 0
M  V30 56 Fe -1.2923 -2.7515 -3.7031 0
M  V30 57 Ag 0.4155 -3.0553 -2.1138 0
M  V30 58 Ag -2.5277 5.1437 -0.9868 0
M  V30 59 Fe -1.9598 5.7267 1.2466 0
M  V30 60 Ag -1.5336 5.9420 3.5760 0
M  V30 61 Ag 0.5185 -0.4431 5.2574 0
M  V30 62 Fe 0.3113 1.9283 5.0404 0
M  V30 63 Ag -0.1830 4.2741 5.1186 0
M  V30 64 Ba 0.5259 -4.3277 0.5368 0
M  V30 65 Ga 1.7270 -3.5868 1.0653 0
M  V30 66 Ba 2.9255 -2.9343 1.7691 0
M  V30 67 Ba 1.8505 -2.4736 2.9755 0
M  V30 68 Ga 1.7474 -2.5259 1.4863 0
M  V30 69 Ba 2.1204 -3.0381 0.0983 0
M  V30 70 Ba 4.3223 -1.8465 0.2872 0
M  V30 71 Ga 4.0812 -3.0420 -0.5045 0
M  V30 72 Ba 3.4912 -4.0368 -1.4001 0
M  V30 73 Ba -5.6428 -2.3437 -4.8246 0
M  V30 74 Ga -4.5478 -1.9408 -5.6856 0
M  V30 75 Ba -3.2409 -1.3852 -5.9089 0
M  V30 76 Ba 2.6476 -1.6112 5.2191 0
M  V30 77 Ga 3.8875 -1.5860 4.5250 0
M  V30 78 Ba 4.5486 -1.4773 3.2728 0
M  V30 79 Ba -1.3338 2.8514 -3.3180 0
M  V30 80 Ga -1.4915 1.4794 -3.9210 0
M  V30 81 Ba -1.4040 0.2233 -4.7443 0
M  V30 82 Ba -0.2484 4.5056 -1.6113 0
M  V30 83 Ga 0.7304 4.6907 -0.5033 0
M  V30 84 Ba 1.9454 4.9910 0.2700 0
M  V30 85 Ba -1.2525 -4.1673 -1.9416 0
M  V30 86 Ga -1.8768 -3.5343 -3.1178 0
M  V30 87 Ba -2.1983 -3.1110 -4.5226 0
M  V30 88 Ba -2.4828 -5.1573 -1.1107 0
M  V30 89 Ga -3.5159 -4.4592 -1.9180 0
M  V30 90 Ba -4.6368 -3.8051 -2.6648 0
M  V30 91 Ba 3.3815 3.4292 1.8641 0
M  V30 92 Ga 3.4848 1.9123 1.7936 0
M  V30 93 Ba 3.9905 0.4765 1.8106 0
M  V30 94 Ba 1.8183 -3.7015 -3.2473 0
M  V30 95 Ga 0.7033 -2.9256 -3.8568 0
M  V30 96 Ba -0.3267 -2.1591 -4.5978 0
M  V30 97 Ba 3.3766 5.6856 3.3480 0
M  V30 98 Ga 2.4753 6.0461 4.4505 0
M  V30 99 Ba 1.3311 6.2910 5.3608 0
M  V30 END ATOM
M  V30 BEGIN BOND
M  V30 1 1 1 2
M  V30 2 1 1 3
M  V30 3 1 1 4
M  V30 4 1 1 5
M  V30 5 1 6 7
M  V30 6 1 6 8
M  V30 7 1 6 9
M  V30 8 1 6 10
M  V30 9 1 11 12
M  V30 10 1 11 13
M  V30 11 1 11 14
M  V30 12 1 11 15
M  V30 13 1 16 17
M  V30 14 1 16 18
M  V30 15 1 16 19
M  V30 16 1 16 20
M  V30 17 1 21 22
M  V30 18 1 21 23
M  V30 19 1 21 24
M  V30 20 1 21 25
M  V30 21 1 26 27
M  V30 22 1 26 28
M  V30 23 1 26 29
M  V30 24 1 26 30
M  V30 25 1 31 32
M  V30 26 1 31 33
M  V30 27 1 31 34
M  V30 28 1 31 35
M  V30 29 1 36 37
M  V30 30 1 36 38
M  V30 31 1 36 39
M  V30 32 1 36 40
M  V30 33 1 41 42
M  V30 34 1 41 43
M  V30 35 1 41 44
M  V30 36 1 41 45
M  V30 37 1 46 47
M  V30 38 1 47 48
M  V30 39 1 49 50
M  V30 40 1 50 51
M  V30 41 1 52 53
M  V30 42 1 53 54
M  V30 43 1 55 56
M  V30 44 1 56 57
M  V30 45 1 58 59
M  V30 46 1 59 60
M  V30 47 1 61 62
M  V30 48 1 62 63
M  V30 49 1 64 65
M  V30 50 1 65 66
M  V30 51 1 67 68
M  V30 52 1 68 69
M  V30 53 1 70 71
M  V30 54 1 71 72
M  V30 55 1 73 74
M  V30 56 1 74 75
M  V30 57 1 76 77
M  V30 58 1 77 78
M  V30 59 1 79 80
M  V30 60 1 80 81
M  V30 61 1 82 83
M  V30 62 1 83 84
M  V30 63 1 85 86
M  V30 64 1 86 87
M  V30 65 1 88 89
M  V30 66 1 89 90
M  V30 67 1 91 92
M  V30 68 1 92 93
M  V30 69 1 94 95
M  V30 70 1 95 96
M  V30 71 1 97 98
M  V30 72 1 98 99
M  V30 73 1 2 79
M  V30 74 1 3 49
M  V30 75 1 4 82
M  V30 76 1 5 58
M  V30 77 1 7 64
M  V30 78 1 8 52
M  V30 79 1 9 85
M  V30 80 1 10 88
M  V30 81 1 12 84
M  V30 82 1 13 97
M  V30 83 1 14 46
M  V30 84 1 15 91
M  V30 85 1 17 67
M  V30 86 1 18 61
M  V30 87 1 19 54
M  V30 88 1 20 76
M  V30 89 1 22 90
M  V30 90 1 23 73
M  V30 91 1 24 55
M  V30 92 1 25 51
M  V30 93 1 27 66
M  V30 94 1 28 93
M  V30 95 1 29 70
M  V30 96 1 30 78
M  V30 97 1 32 60
M  V30 98 1 33 99
M  V30 99 1 34 63
M  V30 100 1 35 48
M  V30 101 1 37 72
M  V30 102 1 38 69
M  V30 103 1 39 94
M  V30 104 1 40 57
M  V30 105 1 42 87
M  V30 106 1 43 96
M  V30 107 1 44 75
M  V30 108 1 45 81
M  V30 END BOND
M  V30 END CTAB
M  END

$$$$
