
     RDKit          3D

  0  0  0  0  0  0  0  0  0  0999 V3000
M  V30 BEGIN CTAB
M  V30 COUNTS 99 108 0 0 0
M  V30 BEGIN ATOM
M  V30 1 Pd 2.9113 -0.4824 -3.4601 0
M  V30 2 Pb 2.1735 -0.3692 -4.1312 0
M  V30 3 Pb 3.7060 -0.6152 -2.8633 0
M  V30 4 Pb 2.7421 -1.4631 -3.3281 0
M  V30 5 Pb 3.0943 0.4948 -3.6004 0
M  V30 6 Pd 4.2355 3.4724 6.0174 0
M  V30 7 Pb 3.3025 3.1132 6.0165 0
M  V30 8 Pb 4.6163 2.5708 6.2285 0
M  V30 9 Pb 3.9229 4.3196 5.5944 0
M  V30 10 Pb 5.1755 3.7982 5.9581 0
M  V30 11 Pd -6.1387 0.3327 -1.0853 0
M  V30 12 Pb -5.4735 0.8477 -1.6296 0
M  V30 13 Pb -6.1848 1.0991 -0.4438 0
M  V30 14 Pb -6.8138 -0.1848 -0.5520 0
M  V30 15 Pb -6.1035 -0.4081 -1.7545 0
M  V30 16 Pd -6.0084 -3.9576 2.1582 0
M  V30 17 Pb -6.7811 -3.4099 1.8346 0
M  V30 18 Pb -6.1240 -4.6268 1.4256 0
M  V30 19 Pb -5.8562 -3.2815 2.8766 0
M  V30 20 Pb -5.1802 -4.4620 2.4087 0
M  V30 21 Pd -3.0397 2.7566 2.9095 0
M  V30 22 Pb -2.2280 2.6166 3.4793 0
M  V30 23 Pb -3.8870 2.8985 2.3957 0
M  V30 24 Pb -3.5255 2.1180 3.5022 0
M  V30 25 Pb -2.5505 3.3323 2.2520 0
M  V30 26 Pd -1.1521 -6.9568 -2.0106 0
M  V30 27 Pb -2.1239 -7.1771 -1.9490 0
M  V30 28 Pb -1.2237 -6.8502 -2.9977 0
M  V30 29 Pb -0.2190 -6.6035 -2.0786 0
M  V30 30 Pb -1.1464 -6.9383 -1.0104 0
M  V30 31 Pd -2.6857 -0.8992 -5.0174 0
M  V30 32 Pb -1.7968 -0.5520 -5.3158 0
M  V30 33 Pb -2.4724 -1.7814 -5.4301 0
M  V30 34 Pb -3.5574 -1.2748 -4.7034 0
M  V30 35 Pb -2.9040 -0.0318 -4.5696 0
M  V30 36 Pd 3.3173 4.7756 -1.0857 0
M  V30 37 Pb 2.3225 4.8420 -1.0058 0
M  V30 38 Pb 4.3128 4.6986 -1.1465 0
M  V30 39 Pb 3.3630 5.2469 -0.2031 0
M  V30 40 Pb 3.2700 4.2910 -1.9616 0
M  V30 41 Pd 8.6476 0.8440 1.7352 0
M  V30 42 Pb 8.3811 0.3160 2.5435 0
M  V30 43 Pb 8.2358 0.1776 1.1149 0
M  V30 44 Pb 8.7342 1.4801 0.9730 0
M  V30 45 Pb 8.9472 1.5585 2.3609 0
M  V30 46 Ag 2.6083 2.8309 5.9892 0
M  V30 47 Fe 0.4820 2.6955 4.9376 0
M  V30 48 Ag -1.6780 2.4763 3.9723 0
M  V30 49 Ag -2.2187 3.7286 1.7062 0
M  V30 50 Fe -0.3165 4.3226 0.4116 0
M  V30 51 Ag 1.5864 4.9182 -0.8812 0
M  V30 52 Ag -5.7365 -2.7411 3.3798 0
M  V30 53 Fe -4.8382 -0.5767 3.7472 0
M  V30 54 Ag -3.8798 1.5882 3.8923 0
M  V30 55 Ag -6.1101 -5.1469 0.8871 0
M  V30 56 Fe -4.6187 -6.2969 -0.5565 0
M  V30 57 Ag -2.8624 -7.2379 -1.8452 0
M  V30 58 Ag 5.8950 3.9527 5.8383 0
M  V30 59 Fe 7.6610 3.2002 4.4522 0
M  V30 60 Ag 9.0317 2.0981 2.8672 0
M  V30 61 Ag 4.9854 1.9160 6.2320 0
M  V30 62 Fe 6.5551 0.7843 4.8504 0
M  V30 63 Ag 8.0892 0.0562 3.1860 0
M  V30 64 Ag -4.5406 -4.8476 2.4927 0
M  V30 65 Fe -2.8101 -5.9054 1.2540 0
M  V30 66 Ag -1.2584 -6.8596 -0.2723 0
M  V30 67 Ag 3.7503 4.8921 5.1454 0
M  V30 68 Fe 3.5153 5.3614 2.8294 0
M  V30 69 Ag 3.3411 5.5795 0.4707 0
M  V30 70 Ag 2.6955 -2.2015 -3.1814 0
M  V30 71 Fe 1.5651 -4.2331 -2.6810 0
M  V30 72 Ag 0.4459 -6.2718 -2.1847 0
M  V30 73 Ag 5.0530 4.5924 -1.2089 0
M  V30 74 Fe 6.9510 3.3694 -0.4775 0
M  V30 75 Ag 8.6583 2.0059 0.4484 0
M  V30 76 Ag 4.3099 -0.8095 -2.4574 0
M  V30 77 Fe 6.0849 -0.5115 -0.9052 0
M  V30 78 Ag 7.8782 -0.2753 0.6368 0
M  V30 79 Ag -1.2971 -6.6354 -3.7069 0
M  V30 80 Fe -1.7906 -4.6459 -4.8937 0
M  V30 81 Ag -2.3154 -2.4705 -5.6708 0
M  V30 82 Ba 1.6905 -0.2124 -4.6885 0
M  V30 83 Ga 0.2647 -0.2914 -5.0677 0
M  V30 84 Ba -1.1284 -0.3152 -5.5601 0
M  V30 85 Ba -6.0777 -0.9462 -2.2746 0
M  V30 86 Ga -5.1430 -1.2660 -3.3685 0
M  V30 87 Ba -4.1998 -1.5739 -4.4585 0
M  V30 88 Ba -4.9801 1.2396 -2.0401 0
M  V30 89 Ga -4.0300 0.9271 -3.1264 0
M  V30 90 Ba -3.0832 0.6031 -4.2123 0
M  V30 91 Ba -7.3308 -0.5791 -0.1704 0
M  V30 92 Ga -7.3335 -1.7699 0.7062 0
M  V30 93 Ba -7.3280 -2.9610 1.5824 0
M  V30 94 Ba 3.1835 1.2218 -3.7799 0
M  V30 95 Ga 3.2294 2.5600 -3.1517 0
M  V30 96 Ba 3.2895 3.9418 -2.6275 0
M  V30 97 Ba -6.2209 1.6994 0.0054 0
M  V30 98 Ga -5.3638 2.3351 1.0253 0
M  V30 99 Ba -4.5449 3.0105 2.0511 0
M  V30 END ATOM
M  V30 BEGIN BOND
M  V30 1 1 1 2
M  V30 2 1 1 3
M  V30 3 1 1 4
M  V30 4 1 1 5
M  V30 5 1 6 7
M  V30 6 1 6 8
M  V30 7 1 6 9
M  V30 8 1 6 10
M  V30 9 1 11 12
M  V30 10 1 11 13
M  V30 11 1 11 14
M  V30 12 1 11 15
M  V30 13 1 16 17
M  V30 14 1 16 18
M  V30 15 1 16 19
M  V30 16 1 16 20
M  V30 17 1 21 22
M  V30 18 1 21 23
M  V30 19 1 21 24
M  V30 20 1 21 25
M  V30 21 1 26 27
M  V30 22 1 26 28
M  V30 23 1 26 29
M  V30 24 1 26 30
M  V30 25 1 31 32
M  V30 26 1 31 33
M  V30 27 1 31 34
M  V30 28 1 31 35
M  V30 29 1 36 37
M  V30 30 1 36 38
M  V30 31 1 36 39
M  V30 32 1 36 40
M  V30 33 1 41 42
M  V30 34 1 41 43
M  V30 35 1 41 44
M  V30 36 1 41 45
M  V30 37 1 46 47
M  V30 38 1 47 48
M  V30 39 1 49 50
M  V30 40 1 50 51
M  V30 41 1 52 53
M  V30 42 1 53 54
M  V30 43 1 55 56
M  V30 44 1 56 57
M  V30 45 1 58 59
M  V30 46 1 59 60
M  V30 47 1 61 62
M  V30 48 1 62 63
M  V30 49 1 64 65
M  V30 50 1 65 66
M  V30 51 1 67 68
M  V30 52 1 68 69
M  V30 53 1 70 71
M  V30 54 1 71 72
M  V30 55 1 73 74
M  V30 56 1 74 75
M  V30 57 1 76 77
M  V30 58 1 77 78
M  V30 59 1 79 80
M  V30 60 1 80 81
M  V30 61 1 82 83
M  V30 62 1 83 84
M  V30 63 1 85 86
M  V30 64 1 86 87
M  V30 65 1 88 89
M  V30 66 1 89 90
M  V30 67 1 91 92
M  V30 68 1 92 93
M  V30 69 1 94 95
M  V30 70 1 95 96
M  V30 71 1 97 98
M  V30 72 1 98 99
M  V30 73 1 2 82
M  V30 74 1 3 76
M  V30 75 1 4 70
M  V30 76 1 5 94
M  V30 77 1 7 46
M  V30 78 1 8 61
M  V30 79 1 9 67
M  V30 80 1 10 58
M  V30 81 1 12 88
M  V30 82 1 13 97
M  V30 83 1 14 91
M  V30 84 1 15 85
M  V30 85 1 17 93
M  V30 86 1 18 55
M  V30 87 1 19 52
M  V30 88 1 20 64
M  V30 89 1 22 48
M  V30 90 1 23 99
M  V30 91 1 24 54
M  V30 92 1 25 49
M  V30 93 1 27 57
M  V30 94 1 28 79
M  V30 95 1 29 72
M  V30 96 1 30 66
M  V30 97 1 32 84
M  V30 98 1 33 81
M  V30 99 1 34 87
M  V30 100 1 35 90
M  V30 101 1 37 51
M  V30 102 1 38 73
M  V30 103 1 39 69
M  V30 104 1 40 96
M  V30 105 1 42 63
M  V30 106 1 43 78
M  V30 107 1 44 75
M  V30 108 1 45 60
M  V30 END BOND
M  V30 END CTAB
M  END

$$$$
