
     RDKit          3D

  0  0  0  0  0  0  0  0  0  0999 V3000
M  V30 BEGIN CTAB
M  V30 COUNTS 99 108 0 0 0
M  V30 BEGIN ATOM
M  V30 1 Pd -2.9819 0.3544 4.0505 0
M  V30 2 Pb -2.4557 1.2065 4.0656 0
M  V30 3 Pb -3.6006 -0.4319 4.1237 0
M  V30 4 Pb -3.4591 0.6606 3.2269 0
M  V30 5 Pb -2.4214 0.0107 4.8041 0
M  V30 6 Pd -1.9726 -7.1848 -1.5674 0
M  V30 7 Pb -1.8984 -6.2437 -1.8887 0
M  V30 8 Pb -2.0784 -8.0626 -1.1057 0
M  V30 9 Pb -1.0206 -7.1211 -1.2718 0
M  V30 10 Pb -2.9667 -7.1732 -1.6739 0
M  V30 11 Pd 6.1543 4.7917 -2.5780 0
M  V30 12 Pb 5.5540 5.5709 -2.7740 0
M  V30 13 Pb 6.6019 3.9420 -2.3138 0
M  V30 14 Pb 6.1834 4.4933 -3.5329 0
M  V30 15 Pb 6.0702 5.0362 -1.6163 0
M  V30 16 Pd 2.5109 2.3457 -5.3389 0
M  V30 17 Pb 3.4695 2.4977 -5.5809 0
M  V30 18 Pb 2.3626 3.3069 -5.5272 0
M  V30 19 Pb 2.6798 1.3678 -5.1918 0
M  V30 20 Pb 1.5313 2.2450 -5.0629 0
M  V30 21 Pd 2.7887 -1.2974 -1.2127 0
M  V30 22 Pb 1.8517 -1.6106 -1.3610 0
M  V30 23 Pb 3.7314 -0.9802 -1.1216 0
M  V30 24 Pb 2.9184 -1.3512 -2.2030 0
M  V30 25 Pb 2.6572 -1.1735 -0.2251 0
M  V30 26 Pd -2.3704 4.4656 -2.4511 0
M  V30 27 Pb -1.9346 5.1699 -2.9948 0
M  V30 28 Pb -2.7074 5.1858 -1.8481 0
M  V30 29 Pb -2.8561 3.7883 -1.8966 0
M  V30 30 Pb -1.9420 3.7442 -3.0345 0
M  V30 31 Pd 0.4327 6.7854 1.1486 0
M  V30 32 Pb 0.0944 6.2957 1.9515 0
M  V30 33 Pb -0.5073 6.9638 0.8547 0
M  V30 34 Pb 1.3708 6.6050 1.4311 0
M  V30 35 Pb 0.8222 7.1779 0.3103 0
M  V30 36 Pd 0.8406 -3.3049 3.9393 0
M  V30 37 Pb 1.3095 -2.5595 3.4607 0
M  V30 38 Pb 0.3576 -4.0278 4.4352 0
M  V30 39 Pb 1.1284 -3.9492 3.2270 0
M  V30 40 Pb 0.5188 -2.6683 4.6442 0
M  V30 41 Pd -5.4283 -7.0721 3.9587 0
M  V30 42 Pb -5.0690 -7.9552 3.6640 0
M  V30 43 Pb -5.6937 -6.1311 4.1672 0
M  V30 44 Pb -4.7261 -7.0231 4.6649 0
M  V30 45 Pb -5.9719 -7.0662 3.1199 0
M  V30 46 Ag -1.8142 -5.5140 -2.0278 0
M  V30 47 Fe -0.3592 -3.6504 -1.8204 0
M  V30 48 Ag 1.1730 -1.8564 -1.5623 0
M  V30 49 Ag -2.1147 1.8724 4.1397 0
M  V30 50 Fe -1.1248 3.8689 3.3153 0
M  V30 51 Ag -0.1251 5.8778 2.5340 0
M  V30 52 Ag 2.1666 4.0134 -5.6056 0
M  V30 53 Fe 0.3941 5.2758 -4.7177 0
M  V30 54 Ag -1.5383 5.6189 -3.4248 0
M  V30 55 Ag 5.9147 5.2125 -0.9090 0
M  V30 56 Fe 4.1066 5.8520 0.4814 0
M  V30 57 Ag 2.0929 6.4740 1.5630 0
M  V30 58 Ag -3.7104 -7.1597 -1.5795 0
M  V30 59 Fe -5.2083 -7.1113 0.2620 0
M  V30 60 Ag -6.2161 -7.0684 2.4114 0
M  V30 61 Ag -2.2446 -8.6314 -0.6518 0
M  V30 62 Fe -3.4524 -8.8868 1.3709 0
M  V30 63 Ag -4.7423 -8.5366 3.3277 0
M  V30 64 Ag 5.0269 6.1086 -2.8084 0
M  V30 65 Fe 3.0869 6.8716 -1.6586 0
M  V30 66 Ag 1.1984 7.3957 -0.3069 0
M  V30 67 Ag -0.3575 -6.9912 -0.9478 0
M  V30 68 Fe 0.5960 -5.7515 0.8412 0
M  V30 69 Ag 1.3182 -4.4282 2.6784 0
M  V30 70 Ag -3.7635 0.8681 2.5736 0
M  V30 71 Fe -3.5273 2.0912 0.5506 0
M  V30 72 Ag -3.2565 3.3246 -1.4618 0
M  V30 73 Ag -0.0382 -4.5271 4.8328 0
M  V30 74 Fe -2.0408 -5.7807 5.0681 0
M  V30 75 Ag -4.1139 -6.9375 5.0850 0
M  V30 76 Ag -4.1202 -0.9685 4.2237 0
M  V30 77 Fe -4.9584 -3.1929 4.2509 0
M  V30 78 Ag -5.8314 -5.4038 4.2883 0
M  V30 79 Ag 6.8015 3.2619 -2.0819 0
M  V30 80 Fe 5.7729 1.1933 -1.5480 0
M  V30 81 Ag 4.4293 -0.7100 -1.1053 0
M  V30 82 Ba 2.6047 -1.0088 0.5087 0
M  V30 83 Ga 2.1073 -1.5528 1.7905 0
M  V30 84 Ba 1.6570 -1.9787 3.1331 0
M  V30 85 Ba 2.8195 0.6316 -5.1159 0
M  V30 86 Ga 2.9082 -0.3585 -4.0228 0
M  V30 87 Ba 3.0027 -1.3683 -2.9484 0
M  V30 88 Ba 0.7886 2.1395 -4.8807 0
M  V30 89 Ga -0.3761 2.7363 -4.1461 0
M  V30 90 Ba -1.6385 3.1832 -3.4685 0
M  V30 91 Ba 6.1953 4.2068 -4.2271 0
M  V30 92 Ga 5.2070 3.4412 -5.0124 0
M  V30 93 Ba 4.1775 2.6815 -5.7491 0
M  V30 94 Ba -1.9489 -0.2480 5.3265 0
M  V30 95 Ga -0.8482 -1.2321 5.2720 0
M  V30 96 Ba 0.2465 -2.2207 5.1850 0
M  V30 97 Ba -2.8939 5.7400 -1.3817 0
M  V30 98 Ga -2.0885 6.4332 -0.3601 0
M  V30 99 Ba -1.2182 7.0766 0.6409 0
M  V30 END ATOM
M  V30 BEGIN BOND
M  V30 1 1 1 2
M  V30 2 1 1 3
M  V30 3 1 1 4
M  V30 4 1 1 5
M  V30 5 1 6 7
M  V30 6 1 6 8
M  V30 7 1 6 9
M  V30 8 1 6 10
M  V30 9 1 11 12
M  V30 10 1 11 13
M  V30 11 1 11 14
M  V30 12 1 11 15
M  V30 13 1 16 17
M  V30 14 1 16 18
M  V30 15 1 16 19
M  V30 16 1 16 20
M  V30 17 1 21 22
M  V30 18 1 21 23
M  V30 19 1 21 24
M  V30 20 1 21 25
M  V30 21 1 26 27
M  V30 22 1 26 28
M  V30 23 1 26 29
M  V30 24 1 26 30
M  V30 25 1 31 32
M  V30 26 1 31 33
M  V30 27 1 31 34
M  V30 28 1 31 35
M  V30 29 1 36 37
M  V30 30 1 36 38
M  V30 31 1 36 39
M  V30 32 1 36 40
M  V30 33 1 41 42
M  V30 34 1 41 43
M  V30 35 1 41 44
M  V30 36 1 41 45
M  V30 37 1 46 47
M  V30 38 1 47 48
M  V30 39 1 49 50
M  V30 40 1 50 51
M  V30 41 1 52 53
M  V30 42 1 53 54
M  V30 43 1 55 56
M  V30 44 1 56 57
M  V30 45 1 58 59
M  V30 46 1 59 60
M  V30 47 1 61 62
M  V30 48 1 62 63
M  V30 49 1 64 65
M  V30 50 1 65 66
M  V30 51 1 67 68
M  V30 52 1 68 69
M  V30 53 1 70 71
M  V30 54 1 71 72
M  V30 55 1 73 74
M  V30 56 1 74 75
M  V30 57 1 76 77
M  V30 58 1 77 78
M  V30 59 1 79 80
M  V30 60 1 80 81
M  V30 61 1 82 83
M  V30 62 1 83 84
M  V30 63 1 85 86
M  V30 64 1 86 87
M  V30 65 1 88 89
M  V30 66 1 89 90
M  V30 67 1 91 92
M  V30 68 1 92 93
M  V30 69 1 94 95
M  V30 70 1 95 96
M  V30 71 1 97 98
M  V30 72 1 98 99
M  V30 73 1 2 49
M  V30 74 1 3 76
M  V30 75 1 4 70
M  V30 76 1 5 94
M  V30 77 1 7 46
M  V30 78 1 8 61
M  V30 79 1 9 67
M  V30 80 1 10 58
M  V30 81 1 12 64
M  V30 82 1 13 79
M  V30 83 1 14 91
M  V30 84 1 15 55
M  V30 85 1 17 93
M  V30 86 1 18 52
M  V30 87 1 19 85
M  V30 88 1 20 88
M  V30 89 1 22 48
M  V30 90 1 23 81
M  V30 91 1 24 87
M  V30 92 1 25 82
M  V30 93 1 27 54
M  V30 94 1 28 97
M  V30 95 1 29 72
M  V30 96 1 30 90
M  V30 97 1 32 51
M  V30 98 1 33 99
M  V30 99 1 34 57
M  V30 100 1 35 66
M  V30 101 1 37 84
M  V30 102 1 38 73
M  V30 103 1 39 69
M  V30 104 1 40 96
M  V30 105 1 42 63
M  V30 106 1 43 78
M  V30 107 1 44 75
M  V30 108 1 45 60
M  V30 END BOND
M  V30 END CTAB
M  END

$$$$
