
     RDKit          3D

  0  0  0  0  0  0  0  0  0  0999 V3000
M  V30 BEGIN CTAB
M  V30 COUNTS 99 108 0 0 0
M  V30 BEGIN ATOM
M  V30 1 Pd 1.7245 1.8497 2.0761 0
M  V30 2 Pb 2.5067 1.4964 1.4802 0
M  V30 3 Pb 0.9703 2.3318 2.6630 0
M  V30 4 Pb 1.9614 1.0590 2.6739 0
M  V30 5 Pb 1.6853 2.6929 1.5491 0
M  V30 6 Pd -6.5866 3.9402 0.5848 0
M  V30 7 Pb -6.3600 3.0572 0.1006 0
M  V30 8 Pb -6.7028 4.7413 1.1765 0
M  V30 9 Pb -6.5077 4.5446 -0.2123 0
M  V30 10 Pb -6.5820 3.4107 1.4233 0
M  V30 11 Pd 3.2811 -4.0178 -5.3365 0
M  V30 12 Pb 3.6975 -3.2255 -4.9423 0
M  V30 13 Pb 2.3741 -3.6284 -5.1110 0
M  V30 14 Pb 2.8212 -4.8296 -5.6727 0
M  V30 15 Pb 4.1915 -4.4249 -5.4757 0
M  V30 16 Pd 0.1677 -7.3900 -0.6234 0
M  V30 17 Pb 0.3821 -7.6242 -1.5546 0
M  V30 18 Pb 1.0380 -7.7616 -0.2675 0
M  V30 19 Pb -0.6411 -6.8574 -0.9075 0
M  V30 20 Pb -0.0288 -7.1089 0.2933 0
M  V30 21 Pd -3.7769 -0.8644 -2.7446 0
M  V30 22 Pb -4.4178 -0.3444 -2.0715 0
M  V30 23 Pb -3.0509 -1.2346 -3.3095 0
M  V30 24 Pb -3.6856 -1.6971 -2.2063 0
M  V30 25 Pb -3.8412 -0.0718 -3.3288 0
M  V30 26 Pd 4.2117 -3.6688 3.3908 0
M  V30 27 Pb 4.3668 -4.6280 3.1949 0
M  V30 28 Pb 5.1860 -3.5104 3.3620 0
M  V30 29 Pb 4.0022 -2.6824 3.4798 0
M  V30 30 Pb 3.2486 -3.8896 3.4946 0
M  V30 31 Pd 6.4424 -1.1333 -1.2565 0
M  V30 32 Pb 5.7902 -0.5278 -0.7362 0
M  V30 33 Pb 7.1386 -1.1118 -0.5530 0
M  V30 34 Pb 7.0350 -1.7459 -1.7642 0
M  V30 35 Pb 5.8014 -1.1811 -2.0121 0
M  V30 36 Pd -2.2541 5.4295 -0.1583 0
M  V30 37 Pb -2.4036 4.5863 -0.5870 0
M  V30 38 Pb -2.1236 6.3490 0.1150 0
M  V30 39 Pb -3.0263 5.7539 -0.6965 0
M  V30 40 Pb -1.3896 5.1570 0.2674 0
M  V30 41 Pd -3.4505 5.5133 4.0641 0
M  V30 42 Pb -4.2793 6.0055 3.8669 0
M  V30 43 Pb -2.5282 4.9978 4.0340 0
M  V30 44 Pb -3.0750 6.4424 4.2131 0
M  V30 45 Pb -3.9944 4.6784 4.0419 0
M  V30 46 Ag -3.8533 0.5801 -3.6263 0
M  V30 47 Fe -3.6883 2.5866 -2.4602 0
M  V30 48 Ag -2.5992 4.0459 -0.9970 0
M  V30 49 Ag -1.2384 -6.4040 -0.9977 0
M  V30 50 Fe -2.2914 -4.3535 -1.5865 0
M  V30 51 Ag -3.5854 -2.4041 -1.9703 0
M  V30 52 Ag 1.7088 -7.8889 0.0613 0
M  V30 53 Fe 3.2829 -6.7778 1.4596 0
M  V30 54 Ag 4.4243 -5.3215 2.9298 0
M  V30 55 Ag 4.9207 -4.5783 -5.4320 0
M  V30 56 Fe 6.4377 -3.5112 -3.9817 0
M  V30 57 Ag 7.3487 -2.2319 -2.2258 0
M  V30 58 Ag -0.1190 -6.8576 0.9594 0
M  V30 59 Fe 1.1106 -5.7381 2.6170 0
M  V30 60 Ag 2.5675 -4.1599 3.5818 0
M  V30 61 Ag 2.4626 -5.4666 -5.7778 0
M  V30 62 Fe 1.3775 -6.9971 -4.3462 0
M  V30 63 Ag 0.5040 -7.7649 -2.2778 0
M  V30 64 Ag -2.0663 7.0657 0.3007 0
M  V30 65 Fe -2.7840 8.3358 2.1519 0
M  V30 66 Ag -2.9252 7.1927 4.1934 0
M  V30 67 Ag 5.9104 -3.4009 3.3350 0
M  V30 68 Fe 7.5695 -2.5832 1.8968 0
M  V30 69 Ag 7.6384 -1.2458 -0.0188 0
M  V30 70 Ag 1.6815 -3.3188 -5.0291 0
M  V30 71 Fe -0.3095 -2.3741 -4.1187 0
M  V30 72 Ag -2.5107 -1.5350 -3.7328 0
M  V30 73 Ba -6.2142 2.3101 -0.0606 0
M  V30 74 Ga -5.5043 1.3059 -0.9417 0
M  V30 75 Ba -4.8863 0.0206 -1.5506 0
M  V30 76 Ba 3.1705 1.3638 1.1267 0
M  V30 77 Ga 4.1775 0.5027 0.4014 0
M  V30 78 Ba 5.3680 0.0128 -0.3611 0
M  V30 79 Ba -6.4620 3.1108 2.0834 0
M  V30 80 Ga -5.5425 3.6501 3.0987 0
M  V30 81 Ba -4.4880 4.0999 4.0174 0
M  V30 82 Ba -6.7371 5.3404 1.6239 0
M  V30 83 Ga -5.8362 5.8278 2.6522 0
M  V30 84 Ba -4.9063 6.3141 3.6551 0
M  V30 85 Ba 3.9295 -2.5944 -4.6643 0
M  V30 86 Ga 4.7472 -2.0338 -3.6003 0
M  V30 87 Ba 5.3839 -1.1623 -2.6175 0
M  V30 88 Ba -6.3417 5.0438 -0.7601 0
M  V30 89 Ga -5.0078 5.5886 -1.0723 0
M  V30 90 Ba -3.5978 5.9971 -1.1042 0
M  V30 91 Ba 2.3444 0.5703 3.1268 0
M  V30 92 Ga 3.0613 -0.7427 3.2227 0
M  V30 93 Ba 3.7744 -1.9771 3.6513 0
M  V30 94 Ba 1.5970 3.3686 1.2747 0
M  V30 95 Ga 0.3931 4.1257 0.8966 0
M  V30 96 Ba -0.6609 5.0521 0.4313 0
M  V30 97 Ba 0.5089 2.8268 3.1199 0
M  V30 98 Ga -0.7351 3.7136 3.3874 0
M  V30 99 Ba -1.8280 4.5939 4.0380 0
M  V30 END ATOM
M  V30 BEGIN BOND
M  V30 1 1 1 2
M  V30 2 1 1 3
M  V30 3 1 1 4
M  V30 4 1 1 5
M  V30 5 1 6 7
M  V30 6 1 6 8
M  V30 7 1 6 9
M  V30 8 1 6 10
M  V30 9 1 11 12
M  V30 10 1 11 13
M  V30 11 1 11 14
M  V30 12 1 11 15
M  V30 13 1 16 17
M  V30 14 1 16 18
M  V30 15 1 16 19
M  V30 16 1 16 20
M  V30 17 1 21 22
M  V30 18 1 21 23
M  V30 19 1 21 24
M  V30 20 1 21 25
M  V30 21 1 26 27
M  V30 22 1 26 28
M  V30 23 1 26 29
M  V30 24 1 26 30
M  V30 25 1 31 32
M  V30 26 1 31 33
M  V30 27 1 31 34
M  V30 28 1 31 35
M  V30 29 1 36 37
M  V30 30 1 36 38
M  V30 31 1 36 39
M  V30 32 1 36 40
M  V30 33 1 41 42
M  V30 34 1 41 43
M  V30 35 1 41 44
M  V30 36 1 41 45
M  V30 37 1 46 47
M  V30 38 1 47 48
M  V30 39 1 49 50
M  V30 40 1 50 51
M  V30 41 1 52 53
M  V30 42 1 53 54
M  V30 43 1 55 56
M  V30 44 1 56 57
M  V30 45 1 58 59
M  V30 46 1 59 60
M  V30 47 1 61 62
M  V30 48 1 62 63
M  V30 49 1 64 65
M  V30 50 1 65 66
M  V30 51 1 67 68
M  V30 52 1 68 69
M  V30 53 1 70 71
M  V30 54 1 71 72
M  V30 55 1 73 74
M  V30 56 1 74 75
M  V30 57 1 76 77
M  V30 58 1 77 78
M  V30 59 1 79 80
M  V30 60 1 80 81
M  V30 61 1 82 83
M  V30 62 1 83 84
M  V30 63 1 85 86
M  V30 64 1 86 87
M  V30 65 1 88 89
M  V30 66 1 89 90
M  V30 67 1 91 92
M  V30 68 1 92 93
M  V30 69 1 94 95
M  V30 70 1 95 96
M  V30 71 1 97 98
M  V30 72 1 98 99
M  V30 73 1 2 76
M  V30 74 1 3 97
M  V30 75 1 4 91
M  V30 76 1 5 94
M  V30 77 1 7 73
M  V30 78 1 8 82
M  V30 79 1 9 88
M  V30 80 1 10 79
M  V30 81 1 12 85
M  V30 82 1 13 70
M  V30 83 1 14 61
M  V30 84 1 15 55
M  V30 85 1 17 63
M  V30 86 1 18 52
M  V30 87 1 19 49
M  V30 88 1 20 58
M  V30 89 1 22 75
M  V30 90 1 23 72
M  V30 91 1 24 51
M  V30 92 1 25 46
M  V30 93 1 27 54
M  V30 94 1 28 67
M  V30 95 1 29 93
M  V30 96 1 30 60
M  V30 97 1 32 78
M  V30 98 1 33 69
M  V30 99 1 34 57
M  V30 100 1 35 87
M  V30 101 1 37 48
M  V30 102 1 38 64
M  V30 103 1 39 90
M  V30 104 1 40 96
M  V30 105 1 42 84
M  V30 106 1 43 99
M  V30 107 1 44 66
M  V30 108 1 45 81
M  V30 END BOND
M  V30 END CTAB
M  END

$$$$
