
     RDKit          3D

  0  0  0  0  0  0  0  0  0  0999 V3000
M  V30 BEGIN CTAB
M  V30 COUNTS 99 108 0 0 0
M  V30 BEGIN ATOM
M  V30 1 Pd -0.2279 2.1882 4.5024 0
M  V30 2 Pb -0.9950 1.6271 4.8168 0
M  V30 3 Pb 0.2302 1.3570 4.1815 0
M  V30 4 Pb -0.7057 3.0406 4.7166 0
M  V30 5 Pb 0.5509 2.7244 4.1888 0
M  V30 6 Pd 4.9272 -3.8346 -0.1860 0
M  V30 7 Pb 4.0919 -3.4593 -0.5994 0
M  V30 8 Pb 4.3410 -4.2612 0.5162 0
M  V30 9 Pb 5.5603 -3.2538 -0.6960 0
M  V30 10 Pb 5.7250 -4.2476 0.2487 0
M  V30 11 Pd -4.0176 -2.4438 -4.2892 0
M  V30 12 Pb -4.8756 -2.0821 -3.9246 0
M  V30 13 Pb -3.1582 -2.8243 -4.6351 0
M  V30 14 Pb -4.0943 -1.8649 -5.1017 0
M  V30 15 Pb -3.9537 -2.9811 -3.4468 0
M  V30 16 Pd -2.3008 2.4245 -5.1148 0
M  V30 17 Pb -2.8251 1.8267 -5.7216 0
M  V30 18 Pb -1.7990 2.9925 -4.4526 0
M  V30 19 Pb -1.4777 2.1690 -5.6240 0
M  V30 20 Pb -3.1260 2.6756 -4.6168 0
M  V30 21 Pd 1.4471 -1.2125 -4.3750 0
M  V30 22 Pb 1.5846 -1.7119 -3.5164 0
M  V30 23 Pb 0.8140 -1.9202 -4.6942 0
M  V30 24 Pb 1.2705 -0.6540 -5.1835 0
M  V30 25 Pb 2.0881 -0.5104 -4.0793 0
M  V30 26 Pd -3.7094 5.0015 1.5878 0
M  V30 27 Pb -2.9110 5.1107 0.9874 0
M  V30 28 Pb -4.5201 4.7848 2.1277 0
M  V30 29 Pb -3.1969 5.1753 2.4323 0
M  V30 30 Pb -4.2285 4.7914 0.7635 0
M  V30 31 Pd -6.4965 -1.2978 2.3667 0
M  V30 32 Pb -5.9286 -1.2920 3.1880 0
M  V30 33 Pb -6.8979 -0.4434 2.6899 0
M  V30 34 Pb -6.0105 -2.0839 1.9835 0
M  V30 35 Pb -6.9676 -1.2250 1.4890 0
M  V30 36 Pd 6.1986 1.1590 0.9898 0
M  V30 37 Pb 5.8770 1.4263 0.0878 0
M  V30 38 Pb 6.4498 0.9137 1.9303 0
M  V30 39 Pb 6.6527 0.3921 0.5243 0
M  V30 40 Pb 5.6949 1.9170 1.3942 0
M  V30 41 Pd 4.1117 -2.0189 4.6065 0
M  V30 42 Pb 3.7041 -2.8559 4.2170 0
M  V30 43 Pb 3.3175 -1.5193 4.2521 0
M  V30 44 Pb 4.6532 -1.1982 4.7826 0
M  V30 45 Pb 4.9054 -2.5492 4.8983 0
M  V30 46 Ag -1.5472 1.1660 5.0330 0
M  V30 47 Fe -3.5127 -0.0463 4.4779 0
M  V30 48 Ag -5.4691 -1.1923 3.7707 0
M  V30 49 Ag 2.5734 0.0171 -3.8736 0
M  V30 50 Fe 4.1007 0.8573 -2.2697 0
M  V30 51 Ag 5.5968 1.5842 -0.5832 0
M  V30 52 Ag -1.4953 3.4133 -3.9013 0
M  V30 53 Fe -1.8334 4.3164 -1.7217 0
M  V30 54 Ag -2.3727 5.1188 0.4567 0
M  V30 55 Ag -3.9677 -3.3235 -2.7783 0
M  V30 56 Fe -4.7437 -3.1004 -0.5435 0
M  V30 57 Ag -5.6323 -2.6106 1.6052 0
M  V30 58 Ag 6.2478 -4.4911 0.7167 0
M  V30 59 Fe 6.4128 -4.0618 3.0247 0
M  V30 60 Ag 5.5081 -2.9816 4.9088 0
M  V30 61 Ag -5.5019 -1.8519 -3.5821 0
M  V30 62 Fe -6.4935 -1.4681 -1.4592 0
M  V30 63 Ag -7.2132 -1.1717 0.7837 0
M  V30 64 Ag -3.7003 2.8953 -4.1948 0
M  V30 65 Fe -4.2693 3.7547 -2.0609 0
M  V30 66 Ag -4.5757 4.6040 0.1301 0
M  V30 67 Ag 1.1532 3.0893 3.9429 0
M  V30 68 Fe 3.2368 2.8812 2.8336 0
M  V30 69 Ag 5.2760 2.4487 1.7068 0
M  V30 70 Ag -5.1280 4.5185 2.4713 0
M  V30 71 Fe -6.2709 2.4685 2.8092 0
M  V30 72 Ag -7.0862 0.2443 2.9136 0
M  V30 73 Ba 3.3985 -3.2565 -0.8180 0
M  V30 74 Ga 2.5967 -2.6346 -1.8943 0
M  V30 75 Ba 1.6256 -2.0505 -2.8456 0
M  V30 76 Ba -0.8947 1.9421 -6.0400 0
M  V30 77 Ga 0.1284 0.8874 -5.9110 0
M  V30 78 Ba 1.1363 -0.1766 -5.7443 0
M  V30 79 Ba 3.9201 -4.5139 1.0973 0
M  V30 80 Ga 3.6704 -4.0067 2.4767 0
M  V30 81 Ba 3.4449 -3.4687 3.8485 0
M  V30 82 Ba -4.1487 -1.4076 -5.6944 0
M  V30 83 Ga -3.6889 -0.0289 -5.9503 0
M  V30 84 Ba -3.2081 1.3508 -6.1571 0
M  V30 85 Ba 6.1079 -2.7972 -0.9329 0
M  V30 86 Ga 6.5313 -1.4611 -0.4522 0
M  V30 87 Ba 6.9356 -0.1277 0.0523 0
M  V30 88 Ba -1.0421 3.7050 4.8118 0
M  V30 89 Ga -1.9510 4.5017 3.9611 0
M  V30 90 Ba -2.8584 5.2848 3.0962 0
M  V30 91 Ba 6.5490 0.8397 2.6753 0
M  V30 92 Ga 5.8706 0.1031 3.7654 0
M  V30 93 Ba 5.1715 -0.6568 4.8259 0
M  V30 94 Ba 0.5332 0.7486 3.8602 0
M  V30 95 Ga 1.6576 -0.2033 3.9766 0
M  V30 96 Ba 2.7006 -1.2483 3.9159 0
M  V30 97 Ba -2.5215 -3.1217 -4.9012 0
M  V30 98 Ga -1.0869 -2.7699 -4.9081 0
M  V30 99 Ba 0.3577 -2.4636 -4.9428 0
M  V30 END ATOM
M  V30 BEGIN BOND
M  V30 1 1 1 2
M  V30 2 1 1 3
M  V30 3 1 1 4
M  V30 4 1 1 5
M  V30 5 1 6 7
M  V30 6 1 6 8
M  V30 7 1 6 9
M  V30 8 1 6 10
M  V30 9 1 11 12
M  V30 10 1 11 13
M  V30 11 1 11 14
M  V30 12 1 11 15
M  V30 13 1 16 17
M  V30 14 1 16 18
M  V30 15 1 16 19
M  V30 16 1 16 20
M  V30 17 1 21 22
M  V30 18 1 21 23
M  V30 19 1 21 24
M  V30 20 1 21 25
M  V30 21 1 26 27
M  V30 22 1 26 28
M  V30 23 1 26 29
M  V30 24 1 26 30
M  V30 25 1 31 32
M  V30 26 1 31 33
M  V30 27 1 31 34
M  V30 28 1 31 35
M  V30 29 1 36 37
M  V30 30 1 36 38
M  V30 31 1 36 39
M  V30 32 1 36 40
M  V30 33 1 41 42
M  V30 34 1 41 43
M  V30 35 1 41 44
M  V30 36 1 41 45
M  V30 37 1 46 47
M  V30 38 1 47 48
M  V30 39 1 49 50
M  V30 40 1 50 51
M  V30 41 1 52 53
M  V30 42 1 53 54
M  V30 43 1 55 56
M  V30 44 1 56 57
M  V30 45 1 58 59
M  V30 46 1 59 60
M  V30 47 1 61 62
M  V30 48 1 62 63
M  V30 49 1 64 65
M  V30 50 1 65 66
M  V30 51 1 67 68
M  V30 52 1 68 69
M  V30 53 1 70 71
M  V30 54 1 71 72
M  V30 55 1 73 74
M  V30 56 1 74 75
M  V30 57 1 76 77
M  V30 58 1 77 78
M  V30 59 1 79 80
M  V30 60 1 80 81
M  V30 61 1 82 83
M  V30 62 1 83 84
M  V30 63 1 85 86
M  V30 64 1 86 87
M  V30 65 1 88 89
M  V30 66 1 89 90
M  V30 67 1 91 92
M  V30 68 1 92 93
M  V30 69 1 94 95
M  V30 70 1 95 96
M  V30 71 1 97 98
M  V30 72 1 98 99
M  V30 73 1 2 46
M  V30 74 1 3 94
M  V30 75 1 4 88
M  V30 76 1 5 67
M  V30 77 1 7 73
M  V30 78 1 8 79
M  V30 79 1 9 85
M  V30 80 1 10 58
M  V30 81 1 12 61
M  V30 82 1 13 97
M  V30 83 1 14 82
M  V30 84 1 15 55
M  V30 85 1 17 84
M  V30 86 1 18 52
M  V30 87 1 19 76
M  V30 88 1 20 64
M  V30 89 1 22 75
M  V30 90 1 23 99
M  V30 91 1 24 78
M  V30 92 1 25 49
M  V30 93 1 27 54
M  V30 94 1 28 70
M  V30 95 1 29 90
M  V30 96 1 30 66
M  V30 97 1 32 48
M  V30 98 1 33 72
M  V30 99 1 34 57
M  V30 100 1 35 63
M  V30 101 1 37 51
M  V30 102 1 38 91
M  V30 103 1 39 87
M  V30 104 1 40 69
M  V30 105 1 42 81
M  V30 106 1 43 96
M  V30 107 1 44 93
M  V30 108 1 45 60
M  V30 END BOND
M  V30 END CTAB
M  END

$$$$
