
     RDKit          3D

  0  0  0  0  0  0  0  0  0  0999 V3000
M  V30 BEGIN CTAB
M  V30 COUNTS 99 108 0 0 0
M  V30 BEGIN ATOM
M  V30 1 Pd 3.3218 0.7337 3.0942 0
M  V30 2 Pb 2.4853 1.1140 3.4844 0
M  V30 3 Pb 4.1913 0.3917 2.7371 0
M  V30 4 Pb 3.2226 -0.0951 3.6488 0
M  V30 5 Pb 3.4301 1.5651 2.5527 0
M  V30 6 Pd 2.6060 0.7309 -7.0104 0
M  V30 7 Pb 1.6070 0.7604 -7.0696 0
M  V30 8 Pb 2.6052 -0.1011 -6.4461 0
M  V30 9 Pb 2.7459 1.6573 -7.3567 0
M  V30 10 Pb 3.5898 0.6643 -7.0391 0
M  V30 11 Pd -7.3507 0.6771 2.0756 0
M  V30 12 Pb -6.9969 1.2891 2.7979 0
M  V30 13 Pb -6.7647 1.1318 1.4005 0
M  V30 14 Pb -7.5915 -0.0367 1.4242 0
M  V30 15 Pb -7.8812 0.2005 2.7708 0
M  V30 16 Pd -3.2565 -4.7748 0.3488 0
M  V30 17 Pb -4.2263 -4.5963 0.1976 0
M  V30 18 Pb -3.4151 -4.9362 1.3219 0
M  V30 19 Pb -3.1262 -4.5386 -0.6117 0
M  V30 20 Pb -2.2731 -4.8773 0.5068 0
M  V30 21 Pd -2.4625 1.2382 -4.2259 0
M  V30 22 Pb -2.0174 1.0421 -5.0999 0
M  V30 23 Pb -2.9568 1.4806 -3.3867 0
M  V30 24 Pb -2.7148 0.2744 -4.1528 0
M  V30 25 Pb -2.0945 2.1635 -4.2722 0
M  V30 26 Pd -0.3493 -3.4474 4.5720 0
M  V30 27 Pb -1.2572 -3.8557 4.4734 0
M  V30 28 Pb -0.6068 -3.0825 5.4700 0
M  V30 29 Pb 0.5780 -3.0853 4.6929 0
M  V30 30 Pb -0.1012 -3.8288 3.6784 0
M  V30 31 Pd -3.7348 0.3690 6.4931 0
M  V30 32 Pb -2.9534 0.8856 6.1499 0
M  V30 33 Pb -3.1110 -0.2819 6.9280 0
M  V30 34 Pb -4.5283 -0.1407 6.8130 0
M  V30 35 Pb -4.3612 1.0008 6.0062 0
M  V30 36 Pd 4.3720 4.1744 -3.7783 0
M  V30 37 Pb 3.4038 4.3844 -3.9104 0
M  V30 38 Pb 5.3454 3.9966 -3.5758 0
M  V30 39 Pb 4.4298 4.1251 -4.7845 0
M  V30 40 Pb 4.2498 4.2467 -2.7904 0
M  V30 41 Pd 6.7458 0.2309 -1.6210 0
M  V30 42 Pb 6.1351 -0.5330 -1.8526 0
M  V30 43 Pb 6.5989 0.1283 -0.6348 0
M  V30 44 Pb 7.1867 1.1253 -1.5650 0
M  V30 45 Pb 6.9937 0.2678 -2.5750 0
M  V30 46 Ag 1.8802 1.4342 3.7864 0
M  V30 47 Fe -0.2473 1.3317 4.8316 0
M  V30 48 Ag -2.3760 1.2750 5.8781 0
M  V30 49 Ag -1.7296 2.8148 -4.2977 0
M  V30 50 Fe 0.4404 3.7650 -4.1632 0
M  V30 51 Ag 2.6770 4.5416 -4.0045 0
M  V30 52 Ag -3.1087 -4.3001 -1.3205 0
M  V30 53 Fe -2.9648 -2.4146 -2.7549 0
M  V30 54 Ag -2.8140 -0.4667 -4.1027 0
M  V30 55 Ag -8.1246 -0.1509 3.3772 0
M  V30 56 Fe -7.0172 -0.5754 5.4146 0
M  V30 57 Ag -5.1904 -0.4639 6.9006 0
M  V30 58 Ag 4.3222 0.6173 -6.9997 0
M  V30 59 Fe 5.9793 0.4486 -5.3386 0
M  V30 60 Ag 7.1359 0.2928 -3.2960 0
M  V30 61 Ag 2.7341 -0.6368 -5.9264 0
M  V30 62 Fe 4.1063 -1.0002 -4.0093 0
M  V30 63 Ag 5.6223 -0.9926 -2.1676 0
M  V30 64 Ag -7.6763 -0.6518 1.0116 0
M  V30 65 Fe -6.4479 -2.5927 0.4275 0
M  V30 66 Ag -4.9262 -4.3728 0.0610 0
M  V30 67 Ag 3.5122 2.1905 2.1506 0
M  V30 68 Fe 3.8346 3.2522 0.0533 0
M  V30 69 Ag 4.1572 4.3012 -2.0502 0
M  V30 70 Ag -6.2963 1.4832 0.9274 0
M  V30 71 Fe -4.8292 1.5336 -0.9442 0
M  V30 72 Ag -3.3380 1.7310 -2.7868 0
M  V30 73 Ba 0.8642 0.7374 -7.1796 0
M  V30 74 Ga -0.4017 0.8397 -6.4277 0
M  V30 75 Ba -1.7259 0.9235 -5.7810 0
M  V30 76 Ba -3.5240 -5.0150 2.0589 0
M  V30 77 Ga -2.7364 -4.6104 3.2382 0
M  V30 78 Ba -1.9236 -4.1918 4.3952 0
M  V30 79 Ba -6.7140 1.7213 3.3571 0
M  V30 80 Ga -5.7611 1.5636 4.4934 0
M  V30 81 Ba -4.8240 1.4944 5.6514 0
M  V30 82 Ba -1.5380 -4.9212 0.6567 0
M  V30 83 Ga -0.7222 -4.5312 1.8260 0
M  V30 84 Ba 0.0672 -4.1312 3.0099 0
M  V30 85 Ba 3.0123 2.3465 -7.4977 0
M  V30 86 Ga 3.6830 3.2717 -6.5483 0
M  V30 87 Ba 4.3455 4.1392 -5.5401 0
M  V30 88 Ba 3.1810 -0.7138 4.0742 0
M  V30 89 Ga 2.1958 -1.7615 4.4154 0
M  V30 90 Ba 1.2830 -2.8524 4.8173 0
M  V30 91 Ba 6.0487 3.9123 -3.2960 0
M  V30 92 Ga 6.7722 2.8876 -2.4976 0
M  V30 93 Ba 7.4423 1.8177 -1.7124 0
M  V30 94 Ba 4.8644 0.1517 2.5089 0
M  V30 95 Ga 5.6641 0.0973 1.2685 0
M  V30 96 Ba 6.5638 -0.0151 0.1030 0
M  V30 97 Ba -0.7966 -2.8221 6.1504 0
M  V30 98 Ga -1.7158 -1.7968 6.6865 0
M  V30 99 Ba -2.6319 -0.7738 7.2323 0
M  V30 END ATOM
M  V30 BEGIN BOND
M  V30 1 1 1 2
M  V30 2 1 1 3
M  V30 3 1 1 4
M  V30 4 1 1 5
M  V30 5 1 6 7
M  V30 6 1 6 8
M  V30 7 1 6 9
M  V30 8 1 6 10
M  V30 9 1 11 12
M  V30 10 1 11 13
M  V30 11 1 11 14
M  V30 12 1 11 15
M  V30 13 1 16 17
M  V30 14 1 16 18
M  V30 15 1 16 19
M  V30 16 1 16 20
M  V30 17 1 21 22
M  V30 18 1 21 23
M  V30 19 1 21 24
M  V30 20 1 21 25
M  V30 21 1 26 27
M  V30 22 1 26 28
M  V30 23 1 26 29
M  V30 24 1 26 30
M  V30 25 1 31 32
M  V30 26 1 31 33
M  V30 27 1 31 34
M  V30 28 1 31 35
M  V30 29 1 36 37
M  V30 30 1 36 38
M  V30 31 1 36 39
M  V30 32 1 36 40
M  V30 33 1 41 42
M  V30 34 1 41 43
M  V30 35 1 41 44
M  V30 36 1 41 45
M  V30 37 1 46 47
M  V30 38 1 47 48
M  V30 39 1 49 50
M  V30 40 1 50 51
M  V30 41 1 52 53
M  V30 42 1 53 54
M  V30 43 1 55 56
M  V30 44 1 56 57
M  V30 45 1 58 59
M  V30 46 1 59 60
M  V30 47 1 61 62
M  V30 48 1 62 63
M  V30 49 1 64 65
M  V30 50 1 65 66
M  V30 51 1 67 68
M  V30 52 1 68 69
M  V30 53 1 70 71
M  V30 54 1 71 72
M  V30 55 1 73 74
M  V30 56 1 74 75
M  V30 57 1 76 77
M  V30 58 1 77 78
M  V30 59 1 79 80
M  V30 60 1 80 81
M  V30 61 1 82 83
M  V30 62 1 83 84
M  V30 63 1 85 86
M  V30 64 1 86 87
M  V30 65 1 88 89
M  V30 66 1 89 90
M  V30 67 1 91 92
M  V30 68 1 92 93
M  V30 69 1 94 95
M  V30 70 1 95 96
M  V30 71 1 97 98
M  V30 72 1 98 99
M  V30 73 1 2 46
M  V30 74 1 3 94
M  V30 75 1 4 88
M  V30 76 1 5 67
M  V30 77 1 7 73
M  V30 78 1 8 61
M  V30 79 1 9 85
M  V30 80 1 10 58
M  V30 81 1 12 79
M  V30 82 1 13 70
M  V30 83 1 14 64
M  V30 84 1 15 55
M  V30 85 1 17 66
M  V30 86 1 18 76
M  V30 87 1 19 52
M  V30 88 1 20 82
M  V30 89 1 22 75
M  V30 90 1 23 72
M  V30 91 1 24 54
M  V30 92 1 25 49
M  V30 93 1 27 78
M  V30 94 1 28 97
M  V30 95 1 29 90
M  V30 96 1 30 84
M  V30 97 1 32 48
M  V30 98 1 33 99
M  V30 99 1 34 57
M  V30 100 1 35 81
M  V30 101 1 37 51
M  V30 102 1 38 91
M  V30 103 1 39 87
M  V30 104 1 40 69
M  V30 105 1 42 63
M  V30 106 1 43 96
M  V30 107 1 44 93
M  V30 108 1 45 60
M  V30 END BOND
M  V30 END CTAB
M  END

$$$$
