
     RDKit          3D

  0  0  0  0  0  0  0  0  0  0999 V3000
M  V30 BEGIN CTAB
M  V30 COUNTS 99 108 0 0 0
M  V30 BEGIN ATOM
M  V30 1 Pd 1.2878 -1.4138 -2.7900 0
M  V30 2 Pb 1.4629 -0.8414 -3.5954 0
M  V30 3 Pb 1.0702 -2.0626 -2.0600 0
M  V30 4 Pb 0.4795 -1.7625 -3.2535 0
M  V30 5 Pb 2.0360 -0.9713 -2.2858 0
M  V30 6 Pd 3.3094 -5.9275 4.9028 0
M  V30 7 Pb 2.6325 -5.2250 5.1177 0
M  V30 8 Pb 3.9522 -6.6486 4.6337 0
M  V30 9 Pb 4.0301 -5.2307 4.8782 0
M  V30 10 Pb 2.5830 -6.6157 4.8917 0
M  V30 11 Pd -0.3482 7.1358 -0.3792 0
M  V30 12 Pb 0.6026 7.0833 -0.6543 0
M  V30 13 Pb -0.0627 7.0802 0.5728 0
M  V30 14 Pb -1.2848 7.1812 -0.0371 0
M  V30 15 Pb -0.6437 7.0057 -1.3487 0
M  V30 16 Pd -6.4549 3.2243 0.7551 0
M  V30 17 Pb -6.1480 4.0670 1.1854 0
M  V30 18 Pb -6.6516 2.4207 0.1650 0
M  V30 19 Pb -5.8970 2.6837 1.3906 0
M  V30 20 Pb -7.0082 3.7876 0.1526 0
M  V30 21 Pd 0.3563 1.3314 4.2744 0
M  V30 22 Pb 0.3356 0.3652 4.5288 0
M  V30 23 Pb 0.3856 2.3172 4.1102 0
M  V30 24 Pb -0.6412 1.3088 4.1619 0
M  V30 25 Pb 1.3562 1.3350 4.3343 0
M  V30 26 Pd -5.3449 1.4136 -4.6089 0
M  V30 27 Pb -5.8513 1.1582 -3.7621 0
M  V30 28 Pb -4.7692 1.7315 -5.3625 0
M  V30 29 Pb -4.8028 0.5782 -4.5648 0
M  V30 30 Pb -5.9188 2.2183 -4.7068 0
M  V30 31 Pd -0.1043 3.4748 -5.0735 0
M  V30 32 Pb 0.3213 2.6276 -5.3923 0
M  V30 33 Pb -0.9636 3.2492 -5.5463 0
M  V30 34 Pb -0.4904 4.3374 -4.6802 0
M  V30 35 Pb 0.7874 3.7198 -4.7184 0
M  V30 36 Pd 4.6631 -1.3418 1.9109 0
M  V30 37 Pb 4.4720 -0.5873 2.5436 0
M  V30 38 Pb 4.8667 -2.0907 1.2848 0
M  V30 39 Pb 4.9690 -1.8977 2.6898 0
M  V30 40 Pb 4.3938 -0.7946 1.1156 0
M  V30 41 Pd 2.5155 -8.0296 0.9966 0
M  V30 42 Pb 3.2710 -8.4895 1.4578 0
M  V30 43 Pb 1.8131 -7.3947 0.6786 0
M  V30 44 Pb 3.1621 -7.5706 0.3968 0
M  V30 45 Pb 1.8996 -8.3775 1.6984 0
M  V30 46 Ag 2.1000 -4.7149 5.2486 0
M  V30 47 Fe 1.2286 -2.5211 4.9945 0
M  V30 48 Ag 0.3096 -0.3435 4.7713 0
M  V30 49 Ag -5.4889 2.3054 1.8991 0
M  V30 50 Fe -3.4199 1.7989 2.9595 0
M  V30 51 Ag -1.3862 1.2457 4.0640 0
M  V30 52 Ag 1.2688 6.9284 -0.9284 0
M  V30 53 Fe 1.8753 5.4885 -2.6824 0
M  V30 54 Ag 1.4116 3.9811 -4.4242 0
M  V30 55 Ag -7.3426 4.1549 -0.3947 0
M  V30 56 Fe -7.1888 3.8835 -2.7249 0
M  V30 57 Ag -6.3678 2.8020 -4.6442 0
M  V30 58 Ag -1.9470 7.1893 0.3123 0
M  V30 59 Fe -3.9370 6.0475 0.9124 0
M  V30 60 Ag -5.8518 4.7255 1.3691 0
M  V30 61 Ag -0.1737 -1.9515 -3.5569 0
M  V30 62 Fe -2.3113 -1.0856 -4.1018 0
M  V30 63 Ag -4.3866 -0.0420 -4.5717 0
M  V30 64 Ag 4.9918 -2.6611 0.8191 0
M  V30 65 Fe 4.4291 -4.8984 0.2809 0
M  V30 66 Ag 3.6354 -7.1174 0.0455 0
M  V30 67 Ag 0.8197 -2.6125 -1.6130 0
M  V30 68 Fe 1.0730 -4.7200 -0.5451 0
M  V30 69 Ag 1.3513 -6.8258 0.5198 0
M  V30 70 Ag 0.1161 6.9101 1.2764 0
M  V30 71 Fe 0.3025 5.0331 2.7157 0
M  V30 72 Ag 0.4408 3.0608 4.0278 0
M  V30 73 Ba 1.5552 -0.4814 -4.2512 0
M  V30 74 Ga 1.1183 0.7722 -4.9015 0
M  V30 75 Ba 0.7061 2.0139 -5.5898 0
M  V30 76 Ba 2.1072 1.3563 4.3583 0
M  V30 77 Ga 3.2165 0.6456 3.6877 0
M  V30 78 Ba 4.3594 -0.0354 3.0436 0
M  V30 79 Ba -6.7924 1.8396 -0.3155 0
M  V30 80 Ga -6.4775 1.4420 -1.7251 0
M  V30 81 Ba -6.2198 0.9554 -3.1182 0
M  V30 82 Ba -0.8802 6.8880 -2.0741 0
M  V30 83 Ga -0.7799 5.8972 -3.1993 0
M  V30 84 Ba -0.7727 5.0035 -4.4071 0
M  V30 85 Ba 2.0538 -7.1426 4.8200 0
M  V30 86 Ga 1.6911 -7.9081 3.6164 0
M  V30 87 Ba 1.5001 -8.5477 2.3051 0
M  V30 88 Ba 4.3710 -7.2223 4.3844 0
M  V30 89 Ga 4.1908 -8.0311 3.1629 0
M  V30 90 Ba 3.8356 -8.7042 1.8987 0
M  V30 91 Ba 4.5665 -4.7028 4.8619 0
M  V30 92 Ga 4.8717 -3.5042 4.0493 0
M  V30 93 Ba 5.2313 -2.2956 3.2748 0
M  V30 94 Ba 2.5608 -0.5565 -1.9357 0
M  V30 95 Ga 3.3768 -0.5274 -0.7017 0
M  V30 96 Ba 4.2376 -0.3988 0.4951 0
M  V30 97 Ba -4.3107 1.9940 -5.8958 0
M  V30 98 Ga -2.9338 2.5368 -5.9012 0
M  V30 99 Ba -1.5635 3.0902 -5.9789 0
M  V30 END ATOM
M  V30 BEGIN BOND
M  V30 1 1 1 2
M  V30 2 1 1 3
M  V30 3 1 1 4
M  V30 4 1 1 5
M  V30 5 1 6 7
M  V30 6 1 6 8
M  V30 7 1 6 9
M  V30 8 1 6 10
M  V30 9 1 11 12
M  V30 10 1 11 13
M  V30 11 1 11 14
M  V30 12 1 11 15
M  V30 13 1 16 17
M  V30 14 1 16 18
M  V30 15 1 16 19
M  V30 16 1 16 20
M  V30 17 1 21 22
M  V30 18 1 21 23
M  V30 19 1 21 24
M  V30 20 1 21 25
M  V30 21 1 26 27
M  V30 22 1 26 28
M  V30 23 1 26 29
M  V30 24 1 26 30
M  V30 25 1 31 32
M  V30 26 1 31 33
M  V30 27 1 31 34
M  V30 28 1 31 35
M  V30 29 1 36 37
M  V30 30 1 36 38
M  V30 31 1 36 39
M  V30 32 1 36 40
M  V30 33 1 41 42
M  V30 34 1 41 43
M  V30 35 1 41 44
M  V30 36 1 41 45
M  V30 37 1 46 47
M  V30 38 1 47 48
M  V30 39 1 49 50
M  V30 40 1 50 51
M  V30 41 1 52 53
M  V30 42 1 53 54
M  V30 43 1 55 56
M  V30 44 1 56 57
M  V30 45 1 58 59
M  V30 46 1 59 60
M  V30 47 1 61 62
M  V30 48 1 62 63
M  V30 49 1 64 65
M  V30 50 1 65 66
M  V30 51 1 67 68
M  V30 52 1 68 69
M  V30 53 1 70 71
M  V30 54 1 71 72
M  V30 55 1 73 74
M  V30 56 1 74 75
M  V30 57 1 76 77
M  V30 58 1 77 78
M  V30 59 1 79 80
M  V30 60 1 80 81
M  V30 61 1 82 83
M  V30 62 1 83 84
M  V30 63 1 85 86
M  V30 64 1 86 87
M  V30 65 1 88 89
M  V30 66 1 89 90
M  V30 67 1 91 92
M  V30 68 1 92 93
M  V30 69 1 94 95
M  V30 70 1 95 96
M  V30 71 1 97 98
M  V30 72 1 98 99
M  V30 73 1 2 73
M  V30 74 1 3 67
M  V30 75 1 4 61
M  V30 76 1 5 94
M  V30 77 1 7 46
M  V30 78 1 8 88
M  V30 79 1 9 91
M  V30 80 1 10 85
M  V30 81 1 12 52
M  V30 82 1 13 70
M  V30 83 1 14 58
M  V30 84 1 15 82
M  V30 85 1 17 60
M  V30 86 1 18 79
M  V30 87 1 19 49
M  V30 88 1 20 55
M  V30 89 1 22 48
M  V30 90 1 23 72
M  V30 91 1 24 51
M  V30 92 1 25 76
M  V30 93 1 27 81
M  V30 94 1 28 97
M  V30 95 1 29 63
M  V30 96 1 30 57
M  V30 97 1 32 75
M  V30 98 1 33 99
M  V30 99 1 34 84
M  V30 100 1 35 54
M  V30 101 1 37 78
M  V30 102 1 38 64
M  V30 103 1 39 93
M  V30 104 1 40 96
M  V30 105 1 42 90
M  V30 106 1 43 69
M  V30 107 1 44 66
M  V30 108 1 45 87
M  V30 END BOND
M  V30 END CTAB
M  END

$$$$
