
     RDKit          3D

  0  0  0  0  0  0  0  0  0  0999 V3000
M  V30 BEGIN CTAB
M  V30 COUNTS 99 108 0 0 0
M  V30 BEGIN ATOM
M  V30 1 Pd -2.4660 0.3497 -2.5175 0
M  V30 2 Pb -2.3494 0.9502 -3.3107 0
M  V30 3 Pb -2.6342 -0.2640 -1.7449 0
M  V30 4 Pb -3.2481 0.8795 -2.1888 0
M  V30 5 Pb -1.6865 -0.1900 -2.8426 0
M  V30 6 Pd 0.4547 -7.9976 2.1790 0
M  V30 7 Pb 1.0880 -7.3398 2.5901 0
M  V30 8 Pb -0.2057 -8.6457 1.7995 0
M  V30 9 Pb 1.1164 -8.2508 1.4673 0
M  V30 10 Pb -0.2389 -7.7320 2.8525 0
M  V30 11 Pd 3.9150 5.6831 -1.1404 0
M  V30 12 Pb 3.7713 5.2997 -2.0515 0
M  V30 13 Pb 4.5095 4.9214 -0.8898 0
M  V30 14 Pb 4.0234 6.0201 -0.2064 0
M  V30 15 Pb 3.2669 6.4128 -1.3649 0
M  V30 16 Pd -0.0606 5.0037 4.5434 0
M  V30 17 Pb 0.8736 5.3447 4.5966 0
M  V30 18 Pb -0.3544 5.9459 4.4456 0
M  V30 19 Pb 0.2749 4.0680 4.6688 0
M  V30 20 Pb -0.9966 4.6884 4.2898 0
M  V30 21 Pd 4.3554 -1.1892 2.4656 0
M  V30 22 Pb 4.0255 -2.0300 2.8965 0
M  V30 23 Pb 4.7273 -0.3762 2.0170 0
M  V30 24 Pb 3.7982 -0.6439 3.0957 0
M  V30 25 Pb 4.8396 -1.7559 1.8030 0
M  V30 26 Pd -3.9912 5.2105 0.1559 0
M  V30 27 Pb -3.7812 6.1300 0.4621 0
M  V30 28 Pb -4.1018 5.5708 -0.7691 0
M  V30 29 Pb -4.2932 4.3129 -0.1685 0
M  V30 30 Pb -3.7921 4.8560 1.0943 0
M  V30 31 Pd -0.5193 5.3997 -3.9031 0
M  V30 32 Pb -0.9214 4.6083 -4.3635 0
M  V30 33 Pb -1.4436 5.7486 -3.7374 0
M  V30 34 Pb -0.1064 6.1818 -3.4322 0
M  V30 35 Pb 0.4007 5.0567 -4.0948 0
M  V30 36 Pd 2.1491 -5.9085 -2.5974 0
M  V30 37 Pb 3.0349 -5.5746 -2.2822 0
M  V30 38 Pb 1.2357 -6.1954 -2.8792 0
M  V30 39 Pb 2.3094 -6.7692 -2.1077 0
M  V30 40 Pb 1.9604 -5.0186 -3.0129 0
M  V30 41 Pd -3.8722 -6.5810 0.8744 0
M  V30 42 Pb -3.7067 -7.5641 0.8470 0
M  V30 43 Pb -3.9082 -5.5821 0.8967 0
M  V30 44 Pb -3.8308 -6.5796 -0.1200 0
M  V30 45 Pb -3.7342 -6.6055 1.8624 0
M  V30 46 Ag 1.5251 -6.8395 2.9412 0
M  V30 47 Fe 2.6628 -4.7560 3.0487 0
M  V30 48 Ag 3.8164 -2.6840 3.2004 0
M  V30 49 Ag 5.1278 -2.2091 1.2837 0
M  V30 50 Fe 4.5340 -3.7726 -0.3976 0
M  V30 51 Ag 3.6658 -5.2852 -2.0045 0
M  V30 52 Ag 0.5689 3.3872 4.7942 0
M  V30 53 Fe 1.9595 1.5699 4.1486 0
M  V30 54 Ag 3.3341 -0.2795 3.5628 0
M  V30 55 Ag -0.6232 6.6079 4.2618 0
M  V30 56 Fe -2.1341 7.2298 2.5732 0
M  V30 57 Ag -3.5803 6.7649 0.7803 0
M  V30 58 Ag 4.0771 6.1927 0.5201 0
M  V30 59 Fe 2.9682 6.0008 2.6074 0
M  V30 60 Ag 1.5522 5.6279 4.4722 0
M  V30 61 Ag -1.0990 -0.5698 -3.1192 0
M  V30 62 Fe 0.3438 -2.4564 -3.2040 0
M  V30 63 Ag 1.7870 -4.3426 -3.2886 0
M  V30 64 Ag 0.5214 -6.3379 -3.0481 0
M  V30 65 Fe -1.6561 -6.5123 -2.1280 0
M  V30 66 Ag -3.6421 -6.6197 -0.8395 0
M  V30 67 Ag -2.8398 -0.6880 -1.1598 0
M  V30 68 Fe -3.3471 -2.7721 -0.1381 0
M  V30 69 Ag -3.8623 -4.8338 0.9241 0
M  V30 70 Ag 4.9253 4.3463 -0.6523 0
M  V30 71 Fe 4.9852 2.2695 0.4971 0
M  V30 72 Ag 5.0475 0.1938 1.6485 0
M  V30 73 Ba -2.2694 1.3680 -3.9304 0
M  V30 74 Ga -1.7446 2.6982 -4.2963 0
M  V30 75 Ba -1.2316 4.0194 -4.7091 0
M  V30 76 Ba 2.7516 6.9298 -1.5439 0
M  V30 77 Ga 1.4885 6.8652 -2.3080 0
M  V30 78 Ba 0.2333 6.7527 -3.0797 0
M  V30 79 Ba -0.7946 -7.5293 3.3179 0
M  V30 80 Ga -2.1720 -7.0845 3.0298 0
M  V30 81 Ba -3.5091 -6.6585 2.5739 0
M  V30 82 Ba -0.7477 -9.0964 1.5439 0
M  V30 83 Ga -2.1335 -8.7724 1.1657 0
M  V30 84 Ba -3.4770 -8.2748 0.8264 0
M  V30 85 Ba 3.6218 5.0060 -2.7241 0
M  V30 86 Ga 2.3729 4.9000 -3.5008 0
M  V30 87 Ba 1.0982 4.8195 -4.2375 0
M  V30 88 Ba -1.6985 4.4591 4.0706 0
M  V30 89 Ga -2.6343 4.5608 2.9009 0
M  V30 90 Ba -3.6606 4.5848 1.8055 0
M  V30 91 Ba 1.5855 -8.4607 0.9151 0
M  V30 92 Ga 2.0100 -7.9184 -0.3952 0
M  V30 93 Ba 2.4470 -7.3928 -1.7082 0
M  V30 94 Ba -3.8513 1.2252 -1.9067 0
M  V30 95 Ga -4.1699 2.4668 -1.1746 0
M  V30 96 Ba -4.5874 3.6772 -0.4402 0
M  V30 97 Ba -4.1349 5.8549 -1.4613 0
M  V30 98 Ga -3.1490 5.9278 -2.5567 0
M  V30 99 Ba -2.1485 5.9909 -3.6396 0
M  V30 END ATOM
M  V30 BEGIN BOND
M  V30 1 1 1 2
M  V30 2 1 1 3
M  V30 3 1 1 4
M  V30 4 1 1 5
M  V30 5 1 6 7
M  V30 6 1 6 8
M  V30 7 1 6 9
M  V30 8 1 6 10
M  V30 9 1 11 12
M  V30 10 1 11 13
M  V30 11 1 11 14
M  V30 12 1 11 15
M  V30 13 1 16 17
M  V30 14 1 16 18
M  V30 15 1 16 19
M  V30 16 1 16 20
M  V30 17 1 21 22
M  V30 18 1 21 23
M  V30 19 1 21 24
M  V30 20 1 21 25
M  V30 21 1 26 27
M  V30 22 1 26 28
M  V30 23 1 26 29
M  V30 24 1 26 30
M  V30 25 1 31 32
M  V30 26 1 31 33
M  V30 27 1 31 34
M  V30 28 1 31 35
M  V30 29 1 36 37
M  V30 30 1 36 38
M  V30 31 1 36 39
M  V30 32 1 36 40
M  V30 33 1 41 42
M  V30 34 1 41 43
M  V30 35 1 41 44
M  V30 36 1 41 45
M  V30 37 1 46 47
M  V30 38 1 47 48
M  V30 39 1 49 50
M  V30 40 1 50 51
M  V30 41 1 52 53
M  V30 42 1 53 54
M  V30 43 1 55 56
M  V30 44 1 56 57
M  V30 45 1 58 59
M  V30 46 1 59 60
M  V30 47 1 61 62
M  V30 48 1 62 63
M  V30 49 1 64 65
M  V30 50 1 65 66
M  V30 51 1 67 68
M  V30 52 1 68 69
M  V30 53 1 70 71
M  V30 54 1 71 72
M  V30 55 1 73 74
M  V30 56 1 74 75
M  V30 57 1 76 77
M  V30 58 1 77 78
M  V30 59 1 79 80
M  V30 60 1 80 81
M  V30 61 1 82 83
M  V30 62 1 83 84
M  V30 63 1 85 86
M  V30 64 1 86 87
M  V30 65 1 88 89
M  V30 66 1 89 90
M  V30 67 1 91 92
M  V30 68 1 92 93
M  V30 69 1 94 95
M  V30 70 1 95 96
M  V30 71 1 97 98
M  V30 72 1 98 99
M  V30 73 1 2 73
M  V30 74 1 3 67
M  V30 75 1 4 94
M  V30 76 1 5 61
M  V30 77 1 7 46
M  V30 78 1 8 82
M  V30 79 1 9 91
M  V30 80 1 10 79
M  V30 81 1 12 85
M  V30 82 1 13 70
M  V30 83 1 14 58
M  V30 84 1 15 76
M  V30 85 1 17 60
M  V30 86 1 18 55
M  V30 87 1 19 52
M  V30 88 1 20 88
M  V30 89 1 22 48
M  V30 90 1 23 72
M  V30 91 1 24 54
M  V30 92 1 25 49
M  V30 93 1 27 57
M  V30 94 1 28 97
M  V30 95 1 29 96
M  V30 96 1 30 90
M  V30 97 1 32 75
M  V30 98 1 33 99
M  V30 99 1 34 78
M  V30 100 1 35 87
M  V30 101 1 37 51
M  V30 102 1 38 64
M  V30 103 1 39 93
M  V30 104 1 40 63
M  V30 105 1 42 84
M  V30 106 1 43 69
M  V30 107 1 44 66
M  V30 108 1 45 81
M  V30 END BOND
M  V30 END CTAB
M  END

$$$$
