
     RDKit          3D

  0  0  0  0  0  0  0  0  0  0999 V3000
M  V30 BEGIN CTAB
M  V30 COUNTS 99 108 0 0 0
M  V30 BEGIN ATOM
M  V30 1 Pd 4.9855 -2.1010 3.1981 0
M  V30 2 Pb 3.9896 -2.1149 3.2784 0
M  V30 3 Pb 5.9821 -2.0899 3.1123 0
M  V30 4 Pb 5.0090 -3.0862 3.0277 0
M  V30 5 Pb 4.9573 -1.1066 3.2889 0
M  V30 6 Pd 7.4663 -4.0271 -0.5847 0
M  V30 7 Pb 6.9074 -4.3242 -1.3582 0
M  V30 8 Pb 6.9396 -4.5936 0.0495 0
M  V30 9 Pb 7.9549 -3.6469 0.1982 0
M  V30 10 Pb 7.9482 -3.4071 -1.2020 0
M  V30 11 Pd -4.3040 0.9957 -3.8764 0
M  V30 12 Pb -5.2515 0.7206 -3.7373 0
M  V30 13 Pb -3.3290 1.2239 -3.9011 0
M  V30 14 Pb -4.5712 1.9546 -4.0099 0
M  V30 15 Pb -4.0839 0.0270 -3.7580 0
M  V30 16 Pd -4.8718 5.3848 -0.8078 0
M  V30 17 Pb -4.6180 5.4047 0.1717 0
M  V30 18 Pb -5.7645 5.0571 -0.5090 0
M  V30 19 Pb -3.9414 5.6445 -1.0487 0
M  V30 20 Pb -5.0871 5.2478 -1.7747 0
M  V30 21 Pd -2.0229 -2.3584 -0.1547 0
M  V30 22 Pb -2.7238 -2.8102 0.4030 0
M  V30 23 Pb -1.3402 -1.8992 -0.7251 0
M  V30 24 Pb -2.5597 -2.4789 -0.9878 0
M  V30 25 Pb -1.4578 -2.2568 0.6632 0
M  V30 26 Pd 5.0637 -0.7348 -3.3049 0
M  V30 27 Pb 5.0110 -1.7205 -3.4721 0
M  V30 28 Pb 5.1208 0.2388 -3.0846 0
M  V30 29 Pb 6.0598 -0.8137 -3.3139 0
M  V30 30 Pb 4.0671 -0.6629 -3.2570 0
M  V30 31 Pd -6.6105 -0.8235 2.2729 0
M  V30 32 Pb -6.1150 -1.6935 2.2516 0
M  V30 33 Pb -6.1097 -0.5418 3.0932 0
M  V30 34 Pb -7.0606 -1.0293 1.4071 0
M  V30 35 Pb -7.0702 0.0603 2.2180 0
M  V30 36 Pd 2.3570 1.4619 0.2437 0
M  V30 37 Pb 1.7258 0.9132 0.7953 0
M  V30 38 Pb 1.7497 1.4566 -0.5571 0
M  V30 39 Pb 2.9726 1.5102 1.0333 0
M  V30 40 Pb 3.0270 1.9485 -0.3162 0
M  V30 41 Pd -2.1247 2.2141 3.0466 0
M  V30 42 Pb -1.4426 2.6921 2.5004 0
M  V30 43 Pb -2.6971 3.0471 3.0020 0
M  V30 44 Pb -2.8056 1.7320 3.6062 0
M  V30 45 Pb -1.5577 1.3957 2.9981 0
M  V30 46 Ag -3.2034 5.7005 -1.0760 0
M  V30 47 Fe -1.6508 4.5780 0.2958 0
M  V30 48 Ag -1.0404 3.1054 2.0323 0
M  V30 49 Ag -0.8757 -1.5533 -1.2039 0
M  V30 50 Fe 1.2468 -1.0996 -2.1703 0
M  V30 51 Ag 3.3237 -0.5787 -3.2002 0
M  V30 52 Ag -5.8981 0.4257 -3.5109 0
M  V30 53 Fe -6.8391 -0.3914 -1.4952 0
M  V30 54 Ag -7.3519 -1.0601 0.7199 0
M  V30 55 Ag 3.2427 -2.1009 3.3367 0
M  V30 56 Fe 1.1024 -2.1527 2.3104 0
M  V30 57 Ag -1.0361 -2.2048 1.2804 0
M  V30 58 Ag -6.3634 4.7529 -0.1825 0
M  V30 59 Fe -7.0351 2.7932 0.9718 0
M  V30 60 Ag -7.3901 0.7189 2.0654 0
M  V30 61 Ag -2.5889 1.3528 -3.8642 0
M  V30 62 Fe -0.6349 1.4252 -2.5084 0
M  V30 63 Ag 1.3462 1.5076 -1.1934 0
M  V30 64 Ba -4.8023 2.6630 -4.1276 0
M  V30 65 Ga -5.0055 3.8824 -3.3166 0
M  V30 66 Ba -5.2056 5.0990 -2.5006 0
M  V30 67 Ba 1.3003 0.4754 1.2347 0
M  V30 68 Ga 0.0935 0.6281 2.0683 0
M  V30 69 Ba -1.1159 0.8024 2.8938 0
M  V30 70 Ba 8.2499 -2.9115 -1.6752 0
M  V30 71 Ga 7.5866 -1.8934 -2.5082 0
M  V30 72 Ba 6.8008 -0.9215 -3.2880 0
M  V30 73 Ba 6.7263 -2.1221 3.0226 0
M  V30 74 Ga 7.5451 -2.7064 1.9454 0
M  V30 75 Ba 8.2471 -3.3244 0.8067 0
M  V30 76 Ba -5.7164 -0.3038 3.6881 0
M  V30 77 Ga -4.5077 0.5324 3.8568 0
M  V30 78 Ba -3.3004 1.3669 4.0434 0
M  V30 79 Ba 5.0615 -3.8108 2.8409 0
M  V30 80 Ga 5.7779 -4.4471 1.7192 0
M  V30 81 Ba 6.5336 -4.9620 0.5616 0
M  V30 82 Ba 4.9075 -0.3596 3.3140 0
M  V30 83 Ga 4.1736 0.6111 2.4785 0
M  V30 84 Ba 3.4302 1.5618 1.6284 0
M  V30 85 Ba 6.4649 -4.4651 -1.9467 0
M  V30 86 Ga 5.7137 -3.5156 -2.7902 0
M  V30 87 Ba 5.0133 -2.4669 -3.5564 0
M  V30 88 Ba 5.1283 0.9592 -2.8771 0
M  V30 89 Ga 4.3592 1.6631 -1.8346 0
M  V30 90 Ba 3.5371 2.2619 -0.7672 0
M  V30 91 Ba -3.2396 -3.1493 0.8346 0
M  V30 92 Ga -4.4849 -2.7433 1.5201 0
M  V30 93 Ba -5.7303 -2.3374 2.2053 0
M  V30 94 Ba -3.9912 -0.7132 -3.6743 0
M  V30 95 Ga -3.4482 -1.6272 -2.6523 0
M  V30 96 Ba -2.9100 -2.5594 -1.6445 0
M  V30 97 Ba -4.4583 5.3937 0.9170 0
M  V30 98 Ga -3.7663 4.5160 1.9034 0
M  V30 99 Ba -3.0954 3.6948 2.9513 0
M  V30 END ATOM
M  V30 BEGIN BOND
M  V30 1 1 1 2
M  V30 2 1 1 3
M  V30 3 1 1 4
M  V30 4 1 1 5
M  V30 5 1 6 7
M  V30 6 1 6 8
M  V30 7 1 6 9
M  V30 8 1 6 10
M  V30 9 1 11 12
M  V30 10 1 11 13
M  V30 11 1 11 14
M  V30 12 1 11 15
M  V30 13 1 16 17
M  V30 14 1 16 18
M  V30 15 1 16 19
M  V30 16 1 16 20
M  V30 17 1 21 22
M  V30 18 1 21 23
M  V30 19 1 21 24
M  V30 20 1 21 25
M  V30 21 1 26 27
M  V30 22 1 26 28
M  V30 23 1 26 29
M  V30 24 1 26 30
M  V30 25 1 31 32
M  V30 26 1 31 33
M  V30 27 1 31 34
M  V30 28 1 31 35
M  V30 29 1 36 37
M  V30 30 1 36 38
M  V30 31 1 36 39
M  V30 32 1 36 40
M  V30 33 1 41 42
M  V30 34 1 41 43
M  V30 35 1 41 44
M  V30 36 1 41 45
M  V30 37 1 46 47
M  V30 38 1 47 48
M  V30 39 1 49 50
M  V30 40 1 50 51
M  V30 41 1 52 53
M  V30 42 1 53 54
M  V30 43 1 55 56
M  V30 44 1 56 57
M  V30 45 1 58 59
M  V30 46 1 59 60
M  V30 47 1 61 62
M  V30 48 1 62 63
M  V30 49 1 64 65
M  V30 50 1 65 66
M  V30 51 1 67 68
M  V30 52 1 68 69
M  V30 53 1 70 71
M  V30 54 1 71 72
M  V30 55 1 73 74
M  V30 56 1 74 75
M  V30 57 1 76 77
M  V30 58 1 77 78
M  V30 59 1 79 80
M  V30 60 1 80 81
M  V30 61 1 82 83
M  V30 62 1 83 84
M  V30 63 1 85 86
M  V30 64 1 86 87
M  V30 65 1 88 89
M  V30 66 1 89 90
M  V30 67 1 91 92
M  V30 68 1 92 93
M  V30 69 1 94 95
M  V30 70 1 95 96
M  V30 71 1 97 98
M  V30 72 1 98 99
M  V30 73 1 2 55
M  V30 74 1 3 73
M  V30 75 1 4 79
M  V30 76 1 5 82
M  V30 77 1 7 85
M  V30 78 1 8 81
M  V30 79 1 9 75
M  V30 80 1 10 70
M  V30 81 1 12 52
M  V30 82 1 13 61
M  V30 83 1 14 64
M  V30 84 1 15 94
M  V30 85 1 17 97
M  V30 86 1 18 58
M  V30 87 1 19 46
M  V30 88 1 20 66
M  V30 89 1 22 91
M  V30 90 1 23 49
M  V30 91 1 24 96
M  V30 92 1 25 57
M  V30 93 1 27 87
M  V30 94 1 28 88
M  V30 95 1 29 72
M  V30 96 1 30 51
M  V30 97 1 32 93
M  V30 98 1 33 76
M  V30 99 1 34 54
M  V30 100 1 35 60
M  V30 101 1 37 67
M  V30 102 1 38 63
M  V30 103 1 39 84
M  V30 104 1 40 90
M  V30 105 1 42 48
M  V30 106 1 43 99
M  V30 107 1 44 78
M  V30 108 1 45 69
M  V30 END BOND
M  V30 END CTAB
M  END

$$$$
