
     RDKit          3D

  0  0  0  0  0  0  0  0  0  0999 V3000
M  V30 BEGIN CTAB
M  V30 COUNTS 99 108 0 0 0
M  V30 BEGIN ATOM
M  V30 1 Pd -3.4427 -1.0037 2.2749 0
M  V30 2 Pb -2.7883 -1.5641 1.7619 0
M  V30 3 Pb -4.0661 -0.4110 2.7860 0
M  V30 4 Pb -3.6654 -0.4368 1.4796 0
M  V30 5 Pb -3.2084 -1.5409 3.0891 0
M  V30 6 Pd 2.1192 6.0522 4.0846 0
M  V30 7 Pb 2.7581 5.7175 3.3896 0
M  V30 8 Pb 1.6514 6.6444 3.4327 0
M  V30 9 Pb 2.5071 5.4020 4.7344 0
M  V30 10 Pb 1.4529 6.3547 4.7837 0
M  V30 11 Pd 2.2452 -5.4616 -4.7017 0
M  V30 12 Pb 1.8346 -5.9051 -3.8872 0
M  V30 13 Pb 2.9567 -5.0801 -4.1139 0
M  V30 14 Pb 2.5965 -4.9663 -5.4983 0
M  V30 15 Pb 1.5513 -5.8971 -5.2679 0
M  V30 16 Pd 2.4014 -0.1387 -6.7823 0
M  V30 17 Pb 2.6015 -1.1098 -6.9486 0
M  V30 18 Pb 2.2611 0.8385 -6.6874 0
M  V30 19 Pb 3.3187 0.0069 -6.4142 0
M  V30 20 Pb 1.4173 -0.2409 -7.0354 0
M  V30 21 Pd 5.0996 0.0398 -0.0163 0
M  V30 22 Pb 5.0281 0.9865 0.3086 0
M  V30 23 Pb 5.1777 -0.8874 -0.3761 0
M  V30 24 Pb 5.4137 0.3510 -0.9127 0
M  V30 25 Pb 4.7552 -0.3464 0.8419 0
M  V30 26 Pd -3.0993 1.1102 -5.0404 0
M  V30 27 Pb -2.6614 1.9864 -5.1987 0
M  V30 28 Pb -3.5733 0.2589 -4.8303 0
M  V30 29 Pb -3.5415 1.4586 -4.2177 0
M  V30 30 Pb -2.5391 0.6941 -5.7869 0
M  V30 31 Pd -2.4578 -5.3567 -1.5792 0
M  V30 32 Pb -2.1086 -4.6959 -0.9101 0
M  V30 33 Pb -3.2490 -4.7904 -1.7832 0
M  V30 34 Pb -2.7526 -5.9656 -2.3098 0
M  V30 35 Pb -1.5794 -5.8542 -1.5407 0
M  V30 36 Pd 0.3848 -0.7575 6.1834 0
M  V30 37 Pb 1.0616 -1.1886 5.5874 0
M  V30 38 Pb -0.2659 -0.2675 6.7601 0
M  V30 39 Pb 1.0742 -0.0718 6.4106 0
M  V30 40 Pb -0.3312 -1.4113 5.9276 0
M  V30 41 Pd -3.3412 5.4861 5.7078 0
M  V30 42 Pb -3.4120 6.1061 4.9298 0
M  V30 43 Pb -4.0857 4.9028 5.3870 0
M  V30 44 Pb -3.2067 4.8202 6.4383 0
M  V30 45 Pb -2.5080 5.9842 5.9854 0
M  V30 46 Ag 3.2428 5.4366 2.8881 0
M  V30 47 Fe 4.1000 3.5583 1.7081 0
M  V30 48 Ag 4.9947 1.7136 0.5034 0
M  V30 49 Ag 4.4904 -0.7248 1.4359 0
M  V30 50 Fe 3.0409 -1.0680 3.2877 0
M  V30 51 Ag 1.6134 -1.4464 5.1497 0
M  V30 52 Ag 3.9516 0.1768 -6.0509 0
M  V30 53 Fe 4.9005 0.3752 -3.8832 0
M  V30 54 Ag 5.6155 0.4886 -1.6217 0
M  V30 55 Ag 2.0604 1.5450 -6.6084 0
M  V30 56 Fe 0.0380 2.5771 -5.9992 0
M  V30 57 Ag -2.2160 2.5588 -5.3337 0
M  V30 58 Ag 0.9557 -6.2381 -5.5501 0
M  V30 59 Fe -1.1852 -6.5901 -4.6308 0
M  V30 60 Ag -2.8105 -6.3463 -2.9429 0
M  V30 61 Ag 1.1390 7.0214 3.0471 0
M  V30 62 Fe -1.2042 7.0916 3.3371 0
M  V30 63 Ag -3.2684 6.5487 4.3492 0
M  V30 64 Ag 2.7347 4.8655 5.2026 0
M  V30 65 Fe 2.2498 2.6677 5.9526 0
M  V30 66 Ag 1.5715 0.4719 6.5411 0
M  V30 67 Ag -3.8662 0.0393 0.9329 0
M  V30 68 Fe -3.8693 0.8580 -1.2967 0
M  V30 69 Ag -3.8278 1.6188 -3.5463 0
M  V30 70 Ag -0.7291 0.1605 7.1622 0
M  V30 71 Fe -1.9551 2.1911 7.1689 0
M  V30 72 Ag -3.0847 4.2619 6.9200 0
M  V30 73 Ag -4.5146 0.0952 3.1121 0
M  V30 74 Fe -4.6575 2.2260 4.1516 0
M  V30 75 Ag -4.5648 4.3696 5.1698 0
M  V30 76 Ag -3.9626 -0.3206 -4.5629 0
M  V30 77 Fe -3.9825 -2.3401 -3.3217 0
M  V30 78 Ag -3.7688 -4.3448 -2.0754 0
M  V30 79 Ag 3.4838 -4.8372 -3.6409 0
M  V30 80 Fe 4.3639 -3.2018 -2.1638 0
M  V30 81 Ag 5.2420 -1.5638 -0.6884 0
M  V30 82 Ba -2.2518 -1.9764 1.4323 0
M  V30 83 Ga -2.0895 -3.0957 0.4800 0
M  V30 84 Ba -1.7757 -4.2014 -0.4500 0
M  V30 85 Ba 0.9652 6.6001 5.3149 0
M  V30 86 Ga -0.4606 6.4434 5.7143 0
M  V30 87 Ba -1.8701 6.3461 6.1847 0
M  V30 88 Ba 1.5390 -6.2368 -3.2655 0
M  V30 89 Ga 0.3009 -6.1987 -2.4346 0
M  V30 90 Ba -0.9078 -6.2117 -1.5606 0
M  V30 91 Ba 0.6720 -0.2999 -7.2253 0
M  V30 92 Ga -0.6967 0.0636 -6.7256 0
M  V30 93 Ba -2.1173 0.3659 -6.3440 0
M  V30 94 Ba 2.8306 -4.5905 -6.1058 0
M  V30 95 Ga 2.7986 -3.1882 -6.5774 0
M  V30 96 Ba 2.8081 -1.8143 -7.1265 0
M  V30 97 Ba -3.0086 -1.9616 3.6811 0
M  V30 98 Ga -1.9479 -1.9122 4.7110 0
M  V30 99 Ba -0.8936 -1.8785 5.7482 0
M  V30 END ATOM
M  V30 BEGIN BOND
M  V30 1 1 1 2
M  V30 2 1 1 3
M  V30 3 1 1 4
M  V30 4 1 1 5
M  V30 5 1 6 7
M  V30 6 1 6 8
M  V30 7 1 6 9
M  V30 8 1 6 10
M  V30 9 1 11 12
M  V30 10 1 11 13
M  V30 11 1 11 14
M  V30 12 1 11 15
M  V30 13 1 16 17
M  V30 14 1 16 18
M  V30 15 1 16 19
M  V30 16 1 16 20
M  V30 17 1 21 22
M  V30 18 1 21 23
M  V30 19 1 21 24
M  V30 20 1 21 25
M  V30 21 1 26 27
M  V30 22 1 26 28
M  V30 23 1 26 29
M  V30 24 1 26 30
M  V30 25 1 31 32
M  V30 26 1 31 33
M  V30 27 1 31 34
M  V30 28 1 31 35
M  V30 29 1 36 37
M  V30 30 1 36 38
M  V30 31 1 36 39
M  V30 32 1 36 40
M  V30 33 1 41 42
M  V30 34 1 41 43
M  V30 35 1 41 44
M  V30 36 1 41 45
M  V30 37 1 46 47
M  V30 38 1 47 48
M  V30 39 1 49 50
M  V30 40 1 50 51
M  V30 41 1 52 53
M  V30 42 1 53 54
M  V30 43 1 55 56
M  V30 44 1 56 57
M  V30 45 1 58 59
M  V30 46 1 59 60
M  V30 47 1 61 62
M  V30 48 1 62 63
M  V30 49 1 64 65
M  V30 50 1 65 66
M  V30 51 1 67 68
M  V30 52 1 68 69
M  V30 53 1 70 71
M  V30 54 1 71 72
M  V30 55 1 73 74
M  V30 56 1 74 75
M  V30 57 1 76 77
M  V30 58 1 77 78
M  V30 59 1 79 80
M  V30 60 1 80 81
M  V30 61 1 82 83
M  V30 62 1 83 84
M  V30 63 1 85 86
M  V30 64 1 86 87
M  V30 65 1 88 89
M  V30 66 1 89 90
M  V30 67 1 91 92
M  V30 68 1 92 93
M  V30 69 1 94 95
M  V30 70 1 95 96
M  V30 71 1 97 98
M  V30 72 1 98 99
M  V30 73 1 2 82
M  V30 74 1 3 73
M  V30 75 1 4 67
M  V30 76 1 5 97
M  V30 77 1 7 46
M  V30 78 1 8 61
M  V30 79 1 9 64
M  V30 80 1 10 85
M  V30 81 1 12 88
M  V30 82 1 13 79
M  V30 83 1 14 94
M  V30 84 1 15 58
M  V30 85 1 17 96
M  V30 86 1 18 55
M  V30 87 1 19 52
M  V30 88 1 20 91
M  V30 89 1 22 48
M  V30 90 1 23 81
M  V30 91 1 24 54
M  V30 92 1 25 49
M  V30 93 1 27 57
M  V30 94 1 28 76
M  V30 95 1 29 69
M  V30 96 1 30 93
M  V30 97 1 32 84
M  V30 98 1 33 78
M  V30 99 1 34 60
M  V30 100 1 35 90
M  V30 101 1 37 51
M  V30 102 1 38 70
M  V30 103 1 39 66
M  V30 104 1 40 99
M  V30 105 1 42 63
M  V30 106 1 43 75
M  V30 107 1 44 72
M  V30 108 1 45 87
M  V30 END BOND
M  V30 END CTAB
M  END

$$$$
