
     RDKit          3D

  0  0  0  0  0  0  0  0  0  0999 V3000
M  V30 BEGIN CTAB
M  V30 COUNTS 99 108 0 0 0
M  V30 BEGIN ATOM
M  V30 1 Pd -4.2163 -0.0676 1.4778 0
M  V30 2 Pb -4.1301 -1.0219 1.2012 0
M  V30 3 Pb -4.4580 0.8770 1.7208 0
M  V30 4 Pb -4.5311 0.1565 0.5534 0
M  V30 5 Pb -3.9129 -0.3543 2.3941 0
M  V30 6 Pd 2.6432 3.8571 4.9315 0
M  V30 7 Pb 3.3699 3.5561 4.3124 0
M  V30 8 Pb 1.9884 4.2468 5.5680 0
M  V30 9 Pb 2.8751 3.1784 5.6275 0
M  V30 10 Pb 2.2469 4.4662 4.2381 0
M  V30 11 Pd 3.7741 -5.1674 -4.4331 0
M  V30 12 Pb 2.8977 -5.4156 -4.8893 0
M  V30 13 Pb 4.5370 -4.8333 -3.8829 0
M  V30 14 Pb 3.9169 -4.4059 -5.0623 0
M  V30 15 Pb 3.6598 -5.9257 -3.8022 0
M  V30 16 Pd 1.8710 1.8617 -5.5119 0
M  V30 17 Pb 2.5375 1.2675 -5.9530 0
M  V30 18 Pb 1.1523 2.3584 -5.0188 0
M  V30 19 Pb 2.5937 2.2164 -4.9188 0
M  V30 20 Pb 1.1748 1.4464 -6.0878 0
M  V30 21 Pd 5.2390 0.2163 0.8688 0
M  V30 22 Pb 5.1596 1.0175 1.4641 0
M  V30 23 Pb 5.4457 -0.5732 0.2870 0
M  V30 24 Pb 5.4243 0.8340 0.1063 0
M  V30 25 Pb 4.9100 -0.3891 1.5923 0
M  V30 26 Pd -2.8949 0.0929 -4.2469 0
M  V30 27 Pb -2.4537 0.9734 -4.0448 0
M  V30 28 Pb -3.2917 -0.7972 -4.4807 0
M  V30 29 Pb -3.5462 0.2216 -3.4940 0
M  V30 30 Pb -2.3327 0.0171 -5.0657 0
M  V30 31 Pd -1.9713 -5.4687 -3.4881 0
M  V30 32 Pb -2.5745 -5.3025 -2.7136 0
M  V30 33 Pb -2.4979 -4.8036 -4.0247 0
M  V30 34 Pb -1.5122 -6.1625 -2.9465 0
M  V30 35 Pb -1.2662 -5.5889 -4.2138 0
M  V30 36 Pd -0.3139 -0.2641 5.9871 0
M  V30 37 Pb 0.3870 -0.7786 5.4925 0
M  V30 38 Pb -1.0274 0.2287 6.4842 0
M  V30 39 Pb 0.4489 0.1682 6.4791 0
M  V30 40 Pb -1.0821 -0.6841 5.4938 0
M  V30 41 Pd -4.0756 5.0994 4.3236 0
M  V30 42 Pb -3.5516 5.4953 5.0665 0
M  V30 43 Pb -4.5403 4.6139 3.5858 0
M  V30 44 Pb -4.5012 4.5262 5.0154 0
M  V30 45 Pb -3.4296 5.5286 3.6884 0
M  V30 46 Ag -4.1466 -1.7371 0.9833 0
M  V30 47 Fe -3.5718 -3.4600 -0.5413 0
M  V30 48 Ag -2.9616 -5.1430 -2.0964 0
M  V30 49 Ag 4.5774 -0.8305 2.0984 0
M  V30 50 Fe 2.7887 -1.0369 3.6473 0
M  V30 51 Ag 0.9653 -1.1287 5.1664 0
M  V30 52 Ag 3.1663 2.4136 -4.4763 0
M  V30 53 Fe 4.3833 1.9370 -2.4940 0
M  V30 54 Ag 5.4606 1.3054 -0.4745 0
M  V30 55 Ag 3.4318 -6.4520 -3.3370 0
M  V30 56 Fe 1.2527 -6.9696 -2.6221 0
M  V30 57 Ag -1.0760 -6.6441 -2.5940 0
M  V30 58 Ag 1.8207 4.8848 3.7762 0
M  V30 59 Fe -0.4602 5.4465 3.3851 0
M  V30 60 Ag -2.8194 5.7617 3.3123 0
M  V30 61 Ag 1.4834 4.5914 5.9894 0
M  V30 62 Fe -0.7821 5.2609 6.0225 0
M  V30 63 Ag -3.0677 5.6775 5.5959 0
M  V30 64 Ag 4.0457 -3.8151 -5.5028 0
M  V30 65 Fe 3.5891 -1.5342 -5.9634 0
M  V30 66 Ag 2.9807 0.7408 -6.2400 0
M  V30 67 Ag -1.6406 0.5572 6.7637 0
M  V30 68 Fe -3.2646 2.2378 6.3601 0
M  V30 69 Ag -4.5897 4.0380 5.5701 0
M  V30 70 Ag 5.0414 -4.5285 -3.4212 0
M  V30 71 Fe 5.3752 -2.8440 -1.7791 0
M  V30 72 Ag 5.6727 -1.1503 -0.1395 0
M  V30 73 Ba 3.9611 3.4179 3.8705 0
M  V30 74 Ga 4.4976 2.4651 2.8786 0
M  V30 75 Ba 5.2064 1.6426 1.8784 0
M  V30 76 Ba 0.5780 2.6718 -4.6445 0
M  V30 77 Ga -0.7651 2.1682 -4.2727 0
M  V30 78 Ba -2.0994 1.6289 -3.9194 0
M  V30 79 Ba 2.2282 -5.5813 -5.2291 0
M  V30 80 Ga 0.7597 -5.6208 -4.9317 0
M  V30 81 Ba -0.7262 -5.6967 -4.7507 0
M  V30 82 Ba 0.6615 1.0881 -6.4909 0
M  V30 83 Ga -0.6473 0.5315 -6.1268 0
M  V30 84 Ba -1.9473 -0.0044 -5.7044 0
M  V30 85 Ba 2.9274 2.6624 6.1701 0
M  V30 86 Ga 2.0159 1.5469 6.5103 0
M  V30 87 Ba 1.0698 0.4479 6.8072 0
M  V30 88 Ba -4.8060 0.3231 -0.1262 0
M  V30 89 Ga -4.3813 0.3156 -1.5423 0
M  V30 90 Ba -4.0910 0.3578 -2.9913 0
M  V30 91 Ba -3.7137 -0.7025 3.0365 0
M  V30 92 Ga -2.6679 -0.7710 4.0852 0
M  V30 93 Ba -1.7186 -0.9716 5.2065 0
M  V30 94 Ba -4.7593 1.5686 1.7686 0
M  V30 95 Ga -4.7563 2.8774 2.4547 0
M  V30 96 Ba -4.8755 4.2310 3.0373 0
M  V30 97 Ba -3.5587 -1.4611 -4.7135 0
M  V30 98 Ga -3.2287 -2.8914 -4.5304 0
M  V30 99 Ba -2.9596 -4.3401 -4.3995 0
M  V30 END ATOM
M  V30 BEGIN BOND
M  V30 1 1 1 2
M  V30 2 1 1 3
M  V30 3 1 1 4
M  V30 4 1 1 5
M  V30 5 1 6 7
M  V30 6 1 6 8
M  V30 7 1 6 9
M  V30 8 1 6 10
M  V30 9 1 11 12
M  V30 10 1 11 13
M  V30 11 1 11 14
M  V30 12 1 11 15
M  V30 13 1 16 17
M  V30 14 1 16 18
M  V30 15 1 16 19
M  V30 16 1 16 20
M  V30 17 1 21 22
M  V30 18 1 21 23
M  V30 19 1 21 24
M  V30 20 1 21 25
M  V30 21 1 26 27
M  V30 22 1 26 28
M  V30 23 1 26 29
M  V30 24 1 26 30
M  V30 25 1 31 32
M  V30 26 1 31 33
M  V30 27 1 31 34
M  V30 28 1 31 35
M  V30 29 1 36 37
M  V30 30 1 36 38
M  V30 31 1 36 39
M  V30 32 1 36 40
M  V30 33 1 41 42
M  V30 34 1 41 43
M  V30 35 1 41 44
M  V30 36 1 41 45
M  V30 37 1 46 47
M  V30 38 1 47 48
M  V30 39 1 49 50
M  V30 40 1 50 51
M  V30 41 1 52 53
M  V30 42 1 53 54
M  V30 43 1 55 56
M  V30 44 1 56 57
M  V30 45 1 58 59
M  V30 46 1 59 60
M  V30 47 1 61 62
M  V30 48 1 62 63
M  V30 49 1 64 65
M  V30 50 1 65 66
M  V30 51 1 67 68
M  V30 52 1 68 69
M  V30 53 1 70 71
M  V30 54 1 71 72
M  V30 55 1 73 74
M  V30 56 1 74 75
M  V30 57 1 76 77
M  V30 58 1 77 78
M  V30 59 1 79 80
M  V30 60 1 80 81
M  V30 61 1 82 83
M  V30 62 1 83 84
M  V30 63 1 85 86
M  V30 64 1 86 87
M  V30 65 1 88 89
M  V30 66 1 89 90
M  V30 67 1 91 92
M  V30 68 1 92 93
M  V30 69 1 94 95
M  V30 70 1 95 96
M  V30 71 1 97 98
M  V30 72 1 98 99
M  V30 73 1 2 46
M  V30 74 1 3 94
M  V30 75 1 4 88
M  V30 76 1 5 91
M  V30 77 1 7 73
M  V30 78 1 8 61
M  V30 79 1 9 85
M  V30 80 1 10 58
M  V30 81 1 12 79
M  V30 82 1 13 70
M  V30 83 1 14 64
M  V30 84 1 15 55
M  V30 85 1 17 66
M  V30 86 1 18 76
M  V30 87 1 19 52
M  V30 88 1 20 82
M  V30 89 1 22 75
M  V30 90 1 23 72
M  V30 91 1 24 54
M  V30 92 1 25 49
M  V30 93 1 27 78
M  V30 94 1 28 97
M  V30 95 1 29 90
M  V30 96 1 30 84
M  V30 97 1 32 48
M  V30 98 1 33 99
M  V30 99 1 34 57
M  V30 100 1 35 81
M  V30 101 1 37 51
M  V30 102 1 38 67
M  V30 103 1 39 87
M  V30 104 1 40 93
M  V30 105 1 42 63
M  V30 106 1 43 96
M  V30 107 1 44 69
M  V30 108 1 45 60
M  V30 END BOND
M  V30 END CTAB
M  END

$$$$
