
     RDKit          3D

  0  0  0  0  0  0  0  0  0  0999 V3000
M  V30 BEGIN CTAB
M  V30 COUNTS 99 108 0 0 0
M  V30 BEGIN ATOM
M  V30 1 Pd 0.0950 4.9753 -4.0469 0
M  V30 2 Pb -0.4197 4.7979 -4.9002 0
M  V30 3 Pb -0.5868 4.4545 -3.5367 0
M  V30 4 Pb 0.7433 5.5423 -4.5482 0
M  V30 5 Pb 0.7383 4.9448 -3.2826 0
M  V30 6 Pd 1.1727 1.4230 -7.7533 0
M  V30 7 Pb 2.0289 0.9690 -7.5297 0
M  V30 8 Pb 0.3659 2.0310 -7.7372 0
M  V30 9 Pb 1.7278 2.1795 -8.0876 0
M  V30 10 Pb 0.6116 0.6329 -7.4913 0
M  V30 11 Pd 1.4047 -3.3451 3.4397 0
M  V30 12 Pb 1.4224 -2.9660 4.3665 0
M  V30 13 Pb 1.9168 -2.5557 3.0921 0
M  V30 14 Pb 0.8211 -4.1131 3.7072 0
M  V30 15 Pb 1.4306 -3.7540 2.5299 0
M  V30 16 Pd -3.7411 2.7583 6.7234 0
M  V30 17 Pb -3.4715 3.2819 7.5330 0
M  V30 18 Pb -3.2062 3.3328 6.1051 0
M  V30 19 Pb -4.2485 2.1506 7.3294 0
M  V30 20 Pb -3.8054 2.0375 6.0231 0
M  V30 21 Pd 3.4338 0.8920 -2.8226 0
M  V30 22 Pb 3.2642 1.8624 -2.6028 0
M  V30 23 Pb 3.6015 1.0100 -3.8066 0
M  V30 24 Pb 3.3625 0.6957 -1.8390 0
M  V30 25 Pb 3.5932 -0.0656 -3.0524 0
M  V30 26 Pd 0.2513 -3.2116 -4.2491 0
M  V30 27 Pb 0.5302 -3.7247 -3.4409 0
M  V30 28 Pb -0.0389 -2.6857 -5.0523 0
M  V30 29 Pb -0.6943 -3.4734 -4.0557 0
M  V30 30 Pb 1.2165 -2.9887 -4.3712 0
M  V30 31 Pd -1.7419 -1.3538 7.8651 0
M  V30 32 Pb -1.3851 -1.0733 8.7577 0
M  V30 33 Pb -2.1384 -1.3342 6.9410 0
M  V30 34 Pb -2.6546 -1.1430 8.2088 0
M  V30 35 Pb -0.8173 -1.5417 7.5300 0
M  V30 36 Pd -0.1170 1.8339 0.4229 0
M  V30 37 Pb -0.7791 2.1861 -0.2342 0
M  V30 38 Pb -0.0188 0.9946 -0.1398 0
M  V30 39 Pb 0.5278 1.4644 1.0826 0
M  V30 40 Pb -0.2813 2.6113 1.0278 0
M  V30 41 Pd -0.9957 -3.9741 0.2635 0
M  V30 42 Pb -0.6937 -3.1652 -0.2705 0
M  V30 43 Pb -1.2704 -4.7215 0.8664 0
M  V30 44 Pb -0.3045 -3.7623 0.9444 0
M  V30 45 Pb -1.6673 -4.1783 -0.4485 0
M  V30 46 Ag 0.9366 1.0472 1.5359 0
M  V30 47 Fe 0.9257 -1.2872 1.8383 0
M  V30 48 Ag 0.1974 -3.4851 1.4118 0
M  V30 49 Ag 2.2610 -1.9574 2.7901 0
M  V30 50 Fe 2.8050 -0.7080 0.8386 0
M  V30 51 Ag 3.3622 0.5627 -1.0953 0
M  V30 52 Ag -2.7973 3.7126 5.6054 0
M  V30 53 Fe -1.5902 3.5493 3.5684 0
M  V30 54 Ag -0.4468 3.1424 1.5287 0
M  V30 55 Ag 1.4521 -4.0924 1.8632 0
M  V30 56 Fe 1.1007 -4.0936 -0.4829 0
M  V30 57 Ag 0.7485 -4.0933 -2.8288 0
M  V30 58 Ag -3.1507 3.3849 8.2000 0
M  V30 59 Fe -1.9959 1.6428 9.3092 0
M  V30 60 Ag -1.2495 -0.6028 9.3227 0
M  V30 61 Ag 1.2268 5.8352 -5.0262 0
M  V30 62 Fe 2.0925 4.7724 -6.9323 0
M  V30 63 Ag 2.1000 2.8068 -8.2170 0
M  V30 64 Ba -0.7633 4.5924 -5.5505 0
M  V30 65 Ga -0.4880 3.5695 -6.6040 0
M  V30 66 Ba -0.1941 2.5405 -7.6464 0
M  V30 67 Ba 1.4919 -2.6849 5.0599 0
M  V30 68 Ga 0.6452 -2.1851 6.1616 0
M  V30 69 Ba -0.1064 -1.6665 7.3219 0
M  V30 70 Ba -1.3718 -3.7037 -3.8305 0
M  V30 71 Ga -1.8254 -4.0115 -2.4610 0
M  V30 72 Ba -2.1192 -4.2732 -1.0394 0
M  V30 73 Ba 0.1562 0.0454 -7.3664 0
M  V30 74 Ga -0.0158 -1.1165 -6.4677 0
M  V30 75 Ba -0.3081 -2.3125 -5.6481 0
M  V30 76 Ba 2.7054 0.7835 -7.2727 0
M  V30 77 Ga 3.2460 0.8425 -5.8965 0
M  V30 78 Ba 3.8071 0.9122 -4.5292 0
M  V30 79 Ba 0.0415 0.3743 -0.5832 0
M  V30 80 Ga -0.2245 -1.0953 -0.5662 0
M  V30 81 Ba -0.4433 -2.5685 -0.6784 0
M  V30 82 Ba -4.5726 1.6417 7.7689 0
M  V30 83 Ga -4.0301 0.3335 8.1607 0
M  V30 84 Ba -3.3299 -0.9268 8.4448 0
M  V30 85 Ba 0.3369 -4.6841 3.7639 0
M  V30 86 Ga -0.5842 -5.0696 2.6788 0
M  V30 87 Ba -1.3662 -5.1985 1.4356 0
M  V30 88 Ba -1.1228 4.0895 -3.1634 0
M  V30 89 Ga -1.1943 3.2615 -1.9487 0
M  V30 90 Ba -1.2753 2.4323 -0.7355 0
M  V30 91 Ba -3.7722 1.4171 5.5864 0
M  V30 92 Ga -3.1472 0.0949 5.8722 0
M  V30 93 Ba -2.4853 -1.1744 6.2857 0
M  V30 94 Ba 1.2891 4.8459 -2.7815 0
M  V30 95 Ga 2.2096 3.7031 -2.5666 0
M  V30 96 Ba 3.1375 2.5669 -2.3485 0
M  V30 97 Ba 3.7147 -0.7487 -3.3330 0
M  V30 98 Ga 2.8413 -1.8168 -3.8498 0
M  V30 99 Ba 1.9569 -2.8773 -4.3637 0
M  V30 END ATOM
M  V30 BEGIN BOND
M  V30 1 1 1 2
M  V30 2 1 1 3
M  V30 3 1 1 4
M  V30 4 1 1 5
M  V30 5 1 6 7
M  V30 6 1 6 8
M  V30 7 1 6 9
M  V30 8 1 6 10
M  V30 9 1 11 12
M  V30 10 1 11 13
M  V30 11 1 11 14
M  V30 12 1 11 15
M  V30 13 1 16 17
M  V30 14 1 16 18
M  V30 15 1 16 19
M  V30 16 1 16 20
M  V30 17 1 21 22
M  V30 18 1 21 23
M  V30 19 1 21 24
M  V30 20 1 21 25
M  V30 21 1 26 27
M  V30 22 1 26 28
M  V30 23 1 26 29
M  V30 24 1 26 30
M  V30 25 1 31 32
M  V30 26 1 31 33
M  V30 27 1 31 34
M  V30 28 1 31 35
M  V30 29 1 36 37
M  V30 30 1 36 38
M  V30 31 1 36 39
M  V30 32 1 36 40
M  V30 33 1 41 42
M  V30 34 1 41 43
M  V30 35 1 41 44
M  V30 36 1 41 45
M  V30 37 1 46 47
M  V30 38 1 47 48
M  V30 39 1 49 50
M  V30 40 1 50 51
M  V30 41 1 52 53
M  V30 42 1 53 54
M  V30 43 1 55 56
M  V30 44 1 56 57
M  V30 45 1 58 59
M  V30 46 1 59 60
M  V30 47 1 61 62
M  V30 48 1 62 63
M  V30 49 1 64 65
M  V30 50 1 65 66
M  V30 51 1 67 68
M  V30 52 1 68 69
M  V30 53 1 70 71
M  V30 54 1 71 72
M  V30 55 1 73 74
M  V30 56 1 74 75
M  V30 57 1 76 77
M  V30 58 1 77 78
M  V30 59 1 79 80
M  V30 60 1 80 81
M  V30 61 1 82 83
M  V30 62 1 83 84
M  V30 63 1 85 86
M  V30 64 1 86 87
M  V30 65 1 88 89
M  V30 66 1 89 90
M  V30 67 1 91 92
M  V30 68 1 92 93
M  V30 69 1 94 95
M  V30 70 1 95 96
M  V30 71 1 97 98
M  V30 72 1 98 99
M  V30 73 1 2 64
M  V30 74 1 3 88
M  V30 75 1 4 61
M  V30 76 1 5 94
M  V30 77 1 7 76
M  V30 78 1 8 66
M  V30 79 1 9 63
M  V30 80 1 10 73
M  V30 81 1 12 67
M  V30 82 1 13 49
M  V30 83 1 14 85
M  V30 84 1 15 55
M  V30 85 1 17 58
M  V30 86 1 18 52
M  V30 87 1 19 82
M  V30 88 1 20 91
M  V30 89 1 22 96
M  V30 90 1 23 78
M  V30 91 1 24 51
M  V30 92 1 25 97
M  V30 93 1 27 57
M  V30 94 1 28 75
M  V30 95 1 29 70
M  V30 96 1 30 99
M  V30 97 1 32 60
M  V30 98 1 33 93
M  V30 99 1 34 84
M  V30 100 1 35 69
M  V30 101 1 37 90
M  V30 102 1 38 79
M  V30 103 1 39 46
M  V30 104 1 40 54
M  V30 105 1 42 81
M  V30 106 1 43 87
M  V30 107 1 44 48
M  V30 108 1 45 72
M  V30 END BOND
M  V30 END CTAB
M  END

$$$$
