
     RDKit          3D

  0  0  0  0  0  0  0  0  0  0999 V3000
M  V30 BEGIN CTAB
M  V30 COUNTS 99 108 0 0 0
M  V30 BEGIN ATOM
M  V30 1 Pd -1.2189 -3.6972 -4.5322 0
M  V30 2 Pb -0.4093 -4.2436 -4.3107 0
M  V30 3 Pb -2.0523 -3.2204 -4.8197 0
M  V30 4 Pb -1.7436 -4.2704 -3.9069 0
M  V30 5 Pb -0.6593 -3.0376 -5.0313 0
M  V30 6 Pd -5.3337 4.3468 0.9457 0
M  V30 7 Pb -4.8096 3.6726 1.4608 0
M  V30 8 Pb -5.7998 4.9671 0.3216 0
M  V30 9 Pb -4.5093 4.9097 0.9033 0
M  V30 10 Pb -6.0876 3.7049 0.7968 0
M  V30 11 Pd 6.0812 0.4668 1.4748 0
M  V30 12 Pb 6.0692 0.5739 0.4889 0
M  V30 13 Pb 6.0825 1.4591 1.5925 0
M  V30 14 Pb 6.0934 0.3984 2.4706 0
M  V30 15 Pb 5.9655 -0.5428 1.3711 0
M  V30 16 Pd 1.3133 0.1894 6.7861 0
M  V30 17 Pb 2.2839 0.3820 6.8923 0
M  V30 18 Pb 0.3879 -0.0915 6.5178 0
M  V30 19 Pb 1.1404 1.1633 6.6303 0
M  V30 20 Pb 1.5254 -0.7775 6.8793 0
M  V30 21 Pd 1.8936 3.0087 2.4164 0
M  V30 22 Pb 0.9723 2.6219 2.4319 0
M  V30 23 Pb 2.8192 3.3909 2.4133 0
M  V30 24 Pb 1.7177 3.3149 3.3535 0
M  V30 25 Pb 2.0722 2.6754 1.4877 0
M  V30 26 Pd -0.3821 -5.3462 2.6380 0
M  V30 27 Pb -0.9752 -4.6701 3.0871 0
M  V30 28 Pb 0.2948 -5.9296 2.1880 0
M  V30 29 Pb -0.9988 -5.4508 1.8573 0
M  V30 30 Pb 0.2157 -5.2634 3.4286 0
M  V30 31 Pd 3.4299 -4.3568 -1.1669 0
M  V30 32 Pb 2.8872 -4.7850 -1.8895 0
M  V30 33 Pb 3.1546 -5.0944 -0.5435 0
M  V30 34 Pb 4.0266 -3.9237 -0.4582 0
M  V30 35 Pb 3.7040 -3.6593 -1.8164 0
M  V30 36 Pd 0.4810 3.2964 -3.2218 0
M  V30 37 Pb 1.1177 2.9312 -2.5391 0
M  V30 38 Pb -0.1698 3.5980 -3.9212 0
M  V30 39 Pb 0.1559 3.9835 -2.5681 0
M  V30 40 Pb 0.7539 2.5754 -3.8594 0
M  V30 41 Pd -6.4295 2.1803 -5.2272 0
M  V30 42 Pb -6.6918 3.0981 -4.9399 0
M  V30 43 Pb -6.1310 1.2537 -5.4580 0
M  V30 44 Pb -5.6845 2.5777 -5.7595 0
M  V30 45 Pb -7.0422 1.8371 -4.5143 0
M  V30 46 Ag -4.3434 3.1789 1.7731 0
M  V30 47 Fe -2.0540 2.7017 2.1765 0
M  V30 48 Ag 0.2722 2.3643 2.5037 0
M  V30 49 Ag -0.2369 -0.4116 6.2407 0
M  V30 50 Fe -0.9297 -2.2303 4.8671 0
M  V30 51 Ag -1.3233 -4.1161 3.4658 0
M  V30 52 Ag -6.6034 3.2319 0.5228 0
M  V30 53 Fe -7.1994 2.3155 -1.5881 0
M  V30 54 Ag -7.3982 1.6838 -3.8710 0
M  V30 55 Ag -6.1245 5.3176 -0.2494 0
M  V30 56 Fe -6.6143 4.7904 -2.5047 0
M  V30 57 Ag -6.8524 3.7518 -4.6190 0
M  V30 58 Ag 5.9925 0.5432 -0.2448 0
M  V30 59 Fe 5.0351 -1.0750 -1.6596 0
M  V30 60 Ag 3.9531 -3.0895 -2.2153 0
M  V30 61 Ag 1.6697 -1.5068 6.8603 0
M  V30 62 Fe 1.2462 -3.4394 5.5615 0
M  V30 63 Ag 0.6189 -5.1420 4.0421 0
M  V30 64 Ag 6.0709 0.4201 3.2183 0
M  V30 65 Fe 4.6778 0.4539 5.1365 0
M  V30 66 Ag 3.0235 0.4505 6.8344 0
M  V30 67 Ag -3.8539 5.2446 0.7615 0
M  V30 68 Fe -1.9248 4.9715 -0.5991 0
M  V30 69 Ag -0.1190 4.4643 -2.0586 0
M  V30 70 Ag -2.0745 -4.6485 -3.3534 0
M  V30 71 Fe -1.8449 -5.1575 -1.0462 0
M  V30 72 Ag -1.4412 -5.5525 1.2597 0
M  V30 73 Ag -0.2365 -2.4860 -5.3104 0
M  V30 74 Fe 0.4061 -0.2329 -4.9248 0
M  V30 75 Ag 0.8971 2.0151 -4.3376 0
M  V30 76 Ag -0.6561 3.7404 -4.4769 0
M  V30 77 Fe -2.8354 3.3915 -5.3567 0
M  V30 78 Ag -5.0670 2.9142 -6.0169 0
M  V30 79 Ag -2.6866 -2.9099 -5.0792 0
M  V30 80 Fe -4.2700 -1.1541 -5.3217 0
M  V30 81 Ag -5.8944 0.5572 -5.6074 0
M  V30 82 Ba 0.1625 -4.7137 -4.1803 0
M  V30 83 Ga 1.3282 -4.8687 -3.2883 0
M  V30 84 Ba 2.5165 -5.1194 -2.4492 0
M  V30 85 Ba 2.2700 2.4171 0.8091 0
M  V30 86 Ga 1.8885 2.5521 -0.6125 0
M  V30 87 Ba 1.6001 2.6074 -2.0612 0
M  V30 88 Ba 1.0719 1.8989 6.4922 0
M  V30 89 Ga 1.2971 2.7234 5.2870 0
M  V30 90 Ba 1.5337 3.5066 4.0566 0
M  V30 91 Ba 5.8755 -1.3080 1.3433 0
M  V30 92 Ga 5.1458 -2.4170 0.6448 0
M  V30 93 Ba 4.5164 -3.6529 0.0733 0
M  V30 94 Ba 0.8438 -6.3243 1.8614 0
M  V30 95 Ga 1.8891 -5.9947 0.8688 0
M  V30 96 Ba 2.9419 -5.6823 -0.1214 0
M  V30 97 Ba 6.0084 2.1931 1.7241 0
M  V30 98 Ga 4.7961 2.9684 2.0506 0
M  V30 99 Ba 3.5245 3.6466 2.3689 0
M  V30 END ATOM
M  V30 BEGIN BOND
M  V30 1 1 1 2
M  V30 2 1 1 3
M  V30 3 1 1 4
M  V30 4 1 1 5
M  V30 5 1 6 7
M  V30 6 1 6 8
M  V30 7 1 6 9
M  V30 8 1 6 10
M  V30 9 1 11 12
M  V30 10 1 11 13
M  V30 11 1 11 14
M  V30 12 1 11 15
M  V30 13 1 16 17
M  V30 14 1 16 18
M  V30 15 1 16 19
M  V30 16 1 16 20
M  V30 17 1 21 22
M  V30 18 1 21 23
M  V30 19 1 21 24
M  V30 20 1 21 25
M  V30 21 1 26 27
M  V30 22 1 26 28
M  V30 23 1 26 29
M  V30 24 1 26 30
M  V30 25 1 31 32
M  V30 26 1 31 33
M  V30 27 1 31 34
M  V30 28 1 31 35
M  V30 29 1 36 37
M  V30 30 1 36 38
M  V30 31 1 36 39
M  V30 32 1 36 40
M  V30 33 1 41 42
M  V30 34 1 41 43
M  V30 35 1 41 44
M  V30 36 1 41 45
M  V30 37 1 46 47
M  V30 38 1 47 48
M  V30 39 1 49 50
M  V30 40 1 50 51
M  V30 41 1 52 53
M  V30 42 1 53 54
M  V30 43 1 55 56
M  V30 44 1 56 57
M  V30 45 1 58 59
M  V30 46 1 59 60
M  V30 47 1 61 62
M  V30 48 1 62 63
M  V30 49 1 64 65
M  V30 50 1 65 66
M  V30 51 1 67 68
M  V30 52 1 68 69
M  V30 53 1 70 71
M  V30 54 1 71 72
M  V30 55 1 73 74
M  V30 56 1 74 75
M  V30 57 1 76 77
M  V30 58 1 77 78
M  V30 59 1 79 80
M  V30 60 1 80 81
M  V30 61 1 82 83
M  V30 62 1 83 84
M  V30 63 1 85 86
M  V30 64 1 86 87
M  V30 65 1 88 89
M  V30 66 1 89 90
M  V30 67 1 91 92
M  V30 68 1 92 93
M  V30 69 1 94 95
M  V30 70 1 95 96
M  V30 71 1 97 98
M  V30 72 1 98 99
M  V30 73 1 2 82
M  V30 74 1 3 79
M  V30 75 1 4 70
M  V30 76 1 5 73
M  V30 77 1 7 46
M  V30 78 1 8 55
M  V30 79 1 9 67
M  V30 80 1 10 52
M  V30 81 1 12 58
M  V30 82 1 13 97
M  V30 83 1 14 64
M  V30 84 1 15 91
M  V30 85 1 17 66
M  V30 86 1 18 49
M  V30 87 1 19 88
M  V30 88 1 20 61
M  V30 89 1 22 48
M  V30 90 1 23 99
M  V30 91 1 24 90
M  V30 92 1 25 85
M  V30 93 1 27 51
M  V30 94 1 28 94
M  V30 95 1 29 72
M  V30 96 1 30 63
M  V30 97 1 32 84
M  V30 98 1 33 96
M  V30 99 1 34 93
M  V30 100 1 35 60
M  V30 101 1 37 87
M  V30 102 1 38 76
M  V30 103 1 39 69
M  V30 104 1 40 75
M  V30 105 1 42 57
M  V30 106 1 43 81
M  V30 107 1 44 78
M  V30 108 1 45 54
M  V30 END BOND
M  V30 END CTAB
M  END

$$$$
