
     RDKit          3D

  0  0  0  0  0  0  0  0  0  0999 V3000
M  V30 BEGIN CTAB
M  V30 COUNTS 99 108 0 0 0
M  V30 BEGIN ATOM
M  V30 1 Pd -6.1969 -3.5815 1.6500 0
M  V30 2 Pb -6.0567 -3.0382 2.4782 0
M  V30 3 Pb -6.8291 -2.8834 1.3185 0
M  V30 4 Pb -6.3257 -4.1122 0.8187 0
M  V30 5 Pb -5.4964 -4.2500 1.9497 0
M  V30 6 Pd 2.8395 4.1708 -0.2465 0
M  V30 7 Pb 2.9497 3.9033 -1.1977 0
M  V30 8 Pb 2.8106 4.5113 0.6934 0
M  V30 9 Pb 2.3221 4.9775 -0.5399 0
M  V30 10 Pb 3.2540 3.2861 0.0198 0
M  V30 11 Pd 3.1768 -1.8180 -4.3606 0
M  V30 12 Pb 2.2140 -1.6786 -4.5994 0
M  V30 13 Pb 4.1226 -1.8608 -4.0347 0
M  V30 14 Pb 3.3241 -0.8617 -4.5824 0
M  V30 15 Pb 3.0092 -2.7611 -4.0771 0
M  V30 16 Pd 5.2012 0.8677 -0.3449 0
M  V30 17 Pb 4.7956 1.4073 -1.0794 0
M  V30 18 Pb 5.6245 0.2698 -1.0327 0
M  V30 19 Pb 5.6233 0.3166 0.3709 0
M  V30 20 Pb 4.7255 1.4117 0.3633 0
M  V30 21 Pd 0.0924 2.5475 2.6310 0
M  V30 22 Pb -0.2586 1.8112 2.0595 0
M  V30 23 Pb 0.4585 3.3121 3.1451 0
M  V30 24 Pb -0.8354 2.7517 2.9518 0
M  V30 25 Pb 1.0614 2.4120 2.3560 0
M  V30 26 Pd -1.0053 3.9474 -3.3692 0
M  V30 27 Pb -0.0459 3.8255 -3.5967 0
M  V30 28 Pb -1.1881 3.0511 -3.7796 0
M  V30 29 Pb -0.7450 4.8012 -2.9156 0
M  V30 30 Pb -1.9518 4.0457 -3.0665 0
M  V30 31 Pd -0.9983 -6.0464 0.3584 0
M  V30 32 Pb -1.6344 -6.3406 -0.3475 0
M  V30 33 Pb -0.3745 -5.7315 1.0745 0
M  V30 34 Pb -0.2517 -6.0736 -0.3053 0
M  V30 35 Pb -1.7724 -5.9924 1.0121 0
M  V30 36 Pd 2.3905 -1.6808 1.5382 0
M  V30 37 Pb 2.8078 -0.8264 1.1793 0
M  V30 38 Pb 3.2808 -1.8913 1.9298 0
M  V30 39 Pb 1.5007 -1.4533 1.1584 0
M  V30 40 Pb 2.0265 -2.5331 1.9187 0
M  V30 41 Pd -5.5876 1.5156 2.0710 0
M  V30 42 Pb -5.5435 2.1492 1.2996 0
M  V30 43 Pb -4.8946 2.0468 2.5619 0
M  V30 44 Pb -5.6103 0.8473 2.8139 0
M  V30 45 Pb -6.3009 0.9929 1.6031 0
M  V30 46 Ag 1.5052 -1.4646 -4.7321 0
M  V30 47 Fe 0.0229 0.3754 -4.4620 0
M  V30 48 Ag -1.2319 2.3566 -4.0667 0
M  V30 49 Ag -6.2723 -4.5417 0.2171 0
M  V30 50 Fe -4.4432 -5.7207 -0.6877 0
M  V30 51 Ag -2.2118 -6.4720 -0.7929 0
M  V30 52 Ag 4.5008 1.7892 -1.6507 0
M  V30 53 Fe 2.6161 2.7599 -2.7133 0
M  V30 54 Ag 0.6830 3.7162 -3.6929 0
M  V30 55 Ag 2.8722 -3.4521 -3.8228 0
M  V30 56 Fe 1.6085 -4.8097 -2.3411 0
M  V30 57 Ag 0.2897 -6.0717 -0.8233 0
M  V30 58 Ag 3.0722 3.6921 -1.9008 0
M  V30 59 Fe 3.2885 1.8703 -3.3999 0
M  V30 60 Ag 3.3967 -0.1276 -4.6622 0
M  V30 61 Ag -2.6426 4.1034 -2.7839 0
M  V30 62 Fe -4.1228 3.3941 -1.0692 0
M  V30 63 Ag -5.4883 2.5959 0.7006 0
M  V30 64 Ba -1.5055 2.9519 3.2297 0
M  V30 65 Ga -2.9438 2.6653 3.0497 0
M  V30 66 Ba -4.4038 2.4573 2.9563 0
M  V30 67 Ba -5.9574 -2.6051 3.0827 0
M  V30 68 Ga -5.7891 -1.1493 3.2486 0
M  V30 69 Ba -5.6262 0.3136 3.3400 0
M  V30 70 Ba 0.0730 -5.4962 1.6291 0
M  V30 71 Ga 0.9268 -4.3223 1.9001 0
M  V30 72 Ba 1.7963 -3.1763 2.2328 0
M  V30 73 Ba -7.2576 -2.3227 1.0691 0
M  V30 74 Ga -7.0821 -0.8615 1.1539 0
M  V30 75 Ba -6.8418 0.5878 1.2768 0
M  V30 76 Ba -0.5101 1.2625 1.6213 0
M  V30 77 Ga 0.1022 -0.0092 1.2247 0
M  V30 78 Ba 0.8315 -1.2421 0.9130 0
M  V30 79 Ba 3.5812 2.6106 0.1548 0
M  V30 80 Ga 3.2830 1.1989 0.5455 0
M  V30 81 Ba 3.2375 -0.2359 0.9499 0
M  V30 82 Ba 5.8763 -0.1398 0.9040 0
M  V30 83 Ga 5.0511 -1.1077 1.6280 0
M  V30 84 Ba 3.9835 -1.9518 2.1652 0
M  V30 85 Ba 4.8208 -1.8183 -3.7593 0
M  V30 86 Ga 5.3923 -1.0222 -2.6501 0
M  V30 87 Ba 5.9243 -0.2090 -1.5336 0
M  V30 88 Ba 2.7647 4.7967 1.3857 0
M  V30 89 Ga 1.8617 4.4493 2.4863 0
M  V30 90 Ba 0.8570 3.8851 3.3893 0
M  V30 91 Ba 4.3956 1.8023 0.9285 0
M  V30 92 Ga 3.0549 2.0661 1.5294 0
M  V30 93 Ba 1.8224 2.4517 2.2723 0
M  V30 94 Ba 1.8767 5.5376 -0.7726 0
M  V30 95 Ga 0.6953 5.5284 -1.6613 0
M  V30 96 Ba -0.4700 5.4051 -2.5626 0
M  V30 97 Ba -4.9748 -4.7530 2.1898 0
M  V30 98 Ga -3.6550 -5.3264 1.7956 0
M  V30 99 Ba -2.3416 -5.9793 1.5219 0
M  V30 END ATOM
M  V30 BEGIN BOND
M  V30 1 1 1 2
M  V30 2 1 1 3
M  V30 3 1 1 4
M  V30 4 1 1 5
M  V30 5 1 6 7
M  V30 6 1 6 8
M  V30 7 1 6 9
M  V30 8 1 6 10
M  V30 9 1 11 12
M  V30 10 1 11 13
M  V30 11 1 11 14
M  V30 12 1 11 15
M  V30 13 1 16 17
M  V30 14 1 16 18
M  V30 15 1 16 19
M  V30 16 1 16 20
M  V30 17 1 21 22
M  V30 18 1 21 23
M  V30 19 1 21 24
M  V30 20 1 21 25
M  V30 21 1 26 27
M  V30 22 1 26 28
M  V30 23 1 26 29
M  V30 24 1 26 30
M  V30 25 1 31 32
M  V30 26 1 31 33
M  V30 27 1 31 34
M  V30 28 1 31 35
M  V30 29 1 36 37
M  V30 30 1 36 38
M  V30 31 1 36 39
M  V30 32 1 36 40
M  V30 33 1 41 42
M  V30 34 1 41 43
M  V30 35 1 41 44
M  V30 36 1 41 45
M  V30 37 1 46 47
M  V30 38 1 47 48
M  V30 39 1 49 50
M  V30 40 1 50 51
M  V30 41 1 52 53
M  V30 42 1 53 54
M  V30 43 1 55 56
M  V30 44 1 56 57
M  V30 45 1 58 59
M  V30 46 1 59 60
M  V30 47 1 61 62
M  V30 48 1 62 63
M  V30 49 1 64 65
M  V30 50 1 65 66
M  V30 51 1 67 68
M  V30 52 1 68 69
M  V30 53 1 70 71
M  V30 54 1 71 72
M  V30 55 1 73 74
M  V30 56 1 74 75
M  V30 57 1 76 77
M  V30 58 1 77 78
M  V30 59 1 79 80
M  V30 60 1 80 81
M  V30 61 1 82 83
M  V30 62 1 83 84
M  V30 63 1 85 86
M  V30 64 1 86 87
M  V30 65 1 88 89
M  V30 66 1 89 90
M  V30 67 1 91 92
M  V30 68 1 92 93
M  V30 69 1 94 95
M  V30 70 1 95 96
M  V30 71 1 97 98
M  V30 72 1 98 99
M  V30 73 1 2 67
M  V30 74 1 3 73
M  V30 75 1 4 49
M  V30 76 1 5 97
M  V30 77 1 7 58
M  V30 78 1 8 88
M  V30 79 1 9 94
M  V30 80 1 10 79
M  V30 81 1 12 46
M  V30 82 1 13 85
M  V30 83 1 14 60
M  V30 84 1 15 55
M  V30 85 1 17 52
M  V30 86 1 18 87
M  V30 87 1 19 82
M  V30 88 1 20 91
M  V30 89 1 22 76
M  V30 90 1 23 90
M  V30 91 1 24 64
M  V30 92 1 25 93
M  V30 93 1 27 54
M  V30 94 1 28 48
M  V30 95 1 29 96
M  V30 96 1 30 61
M  V30 97 1 32 51
M  V30 98 1 33 70
M  V30 99 1 34 57
M  V30 100 1 35 99
M  V30 101 1 37 81
M  V30 102 1 38 84
M  V30 103 1 39 78
M  V30 104 1 40 72
M  V30 105 1 42 63
M  V30 106 1 43 66
M  V30 107 1 44 69
M  V30 108 1 45 75
M  V30 END BOND
M  V30 END CTAB
M  END

$$$$
