
     RDKit          3D

  0  0  0  0  0  0  0  0  0  0999 V3000
M  V30 BEGIN CTAB
M  V30 COUNTS 99 108 0 0 0
M  V30 BEGIN ATOM
M  V30 1 Pd -0.9094 0.3048 -5.7686 0
M  V30 2 Pb 0.0251 0.6078 -5.5706 0
M  V30 3 Pb -0.5554 -0.4576 -6.3134 0
M  V30 4 Pb -1.3064 1.0804 -5.2753 0
M  V30 5 Pb -1.8387 -0.0237 -5.9281 0
M  V30 6 Pd 2.4742 -4.3180 0.4112 0
M  V30 7 Pb 2.5801 -3.5315 1.0179 0
M  V30 8 Pb 3.3385 -4.1052 -0.0351 0
M  V30 9 Pb 1.5619 -4.5039 0.7627 0
M  V30 10 Pb 2.3046 -5.0326 -0.2847 0
M  V30 11 Pd 3.4913 0.8668 5.7622 0
M  V30 12 Pb 3.8555 1.7434 5.4602 0
M  V30 13 Pb 3.0652 0.0008 6.0214 0
M  V30 14 Pb 2.8729 1.3272 6.3953 0
M  V30 15 Pb 4.0179 0.4530 5.0148 0
M  V30 16 Pd -3.2689 3.3508 4.7669 0
M  V30 17 Pb -2.5985 3.3071 5.5072 0
M  V30 18 Pb -2.9653 4.2757 4.5385 0
M  V30 19 Pb -3.5353 2.4060 4.9654 0
M  V30 20 Pb -3.9126 3.3958 4.0017 0
M  V30 21 Pd -0.7252 -1.0579 3.7074 0
M  V30 22 Pb 0.1679 -1.1217 3.2586 0
M  V30 23 Pb -0.2618 -1.3859 4.5306 0
M  V30 24 Pb -1.5937 -0.9454 4.1920 0
M  V30 25 Pb -1.1882 -0.7460 2.8745 0
M  V30 26 Pd -2.5397 5.4327 0.0710 0
M  V30 27 Pb -2.3797 5.8384 0.9712 0
M  V30 28 Pb -1.6945 5.8280 -0.2877 0
M  V30 29 Pb -2.6934 5.0229 -0.8280 0
M  V30 30 Pb -3.3621 4.9956 0.4382 0
M  V30 31 Pd 4.3478 3.2769 -0.8580 0
M  V30 32 Pb 4.1494 2.8457 -1.7401 0
M  V30 33 Pb 3.8684 4.1009 -1.1535 0
M  V30 34 Pb 4.7215 2.4341 -0.4621 0
M  V30 35 Pb 4.5224 3.7011 0.0269 0
M  V30 36 Pd -3.6722 -3.0690 -2.9255 0
M  V30 37 Pb -3.6786 -2.2509 -2.3510 0
M  V30 38 Pb -3.5375 -3.8816 -3.4928 0
M  V30 39 Pb -3.4123 -3.5745 -2.1063 0
M  V30 40 Pb -3.9234 -2.5466 -3.7400 0
M  V30 41 Pd 0.8440 -4.8613 -5.0723 0
M  V30 42 Pb 1.7928 -4.5572 -5.0661 0
M  V30 43 Pb 0.6665 -4.2797 -5.8653 0
M  V30 44 Pb -0.1096 -5.1756 -5.0735 0
M  V30 45 Pb 1.0480 -5.4047 -4.2423 0
M  V30 46 Ag 0.7341 0.8040 -5.4136 0
M  V30 47 Fe 2.3569 1.6770 -3.9116 0
M  V30 48 Ag 3.9801 2.5502 -2.4103 0
M  V30 49 Ag -1.5802 -0.5232 2.2717 0
M  V30 50 Fe -2.6101 -1.0360 0.1917 0
M  V30 51 Ag -3.5918 -1.6770 -1.8758 0
M  V30 52 Ag 4.3724 0.2406 4.3838 0
M  V30 53 Fe 4.7493 0.9118 2.1312 0
M  V30 54 Ag 4.9422 1.8412 -0.0519 0
M  V30 55 Ag 3.8628 -3.9647 -0.5399 0
M  V30 56 Fe 3.6471 -4.0240 -2.8874 0
M  V30 57 Ag 2.4908 -4.3499 -4.9174 0
M  V30 58 Ag 4.1037 2.3690 5.1397 0
M  V30 59 Fe 4.4374 3.3227 2.9966 0
M  V30 60 Ag 4.6364 3.9510 0.7207 0
M  V30 61 Ag 2.3351 1.6736 6.7824 0
M  V30 62 Fe 0.1272 2.5091 6.5398 0
M  V30 63 Ag -2.0682 3.2556 6.0346 0
M  V30 64 Ag 0.8418 -4.6392 0.8965 0
M  V30 65 Fe -1.2627 -4.3478 -0.1521 0
M  V30 66 Ag -3.1762 -3.8950 -1.4743 0
M  V30 67 Ag -1.6718 1.6527 -4.9533 0
M  V30 68 Fe -2.1877 3.1682 -3.1979 0
M  V30 69 Ag -2.7857 4.7338 -1.5138 0
M  V30 70 Ag -1.0448 6.0655 -0.5763 0
M  V30 71 Fe 1.2205 5.4975 -1.0005 0
M  V30 72 Ag 3.4324 4.6908 -1.3001 0
M  V30 73 Ba 2.6454 -2.9012 1.4177 0
M  V30 74 Ga 1.7362 -2.0484 2.2081 0
M  V30 75 Ba 0.8758 -1.1546 3.0075 0
M  V30 76 Ba -3.7006 1.6873 5.1102 0
M  V30 77 Ga -2.9956 0.4184 4.8379 0
M  V30 78 Ba -2.2475 -0.8196 4.5397 0
M  V30 79 Ba -2.7275 4.9562 4.3316 0
M  V30 80 Ga -2.4950 5.5666 3.0090 0
M  V30 81 Ba -2.2817 6.1217 1.6590 0
M  V30 82 Ba 2.1432 -5.5642 -0.8061 0
M  V30 83 Ga 1.6867 -5.6438 -2.2231 0
M  V30 84 Ba 1.2320 -5.8232 -3.6315 0
M  V30 85 Ba -4.3698 3.4545 3.4088 0
M  V30 86 Ga -4.1932 4.0474 2.0681 0
M  V30 87 Ba -3.9584 4.6559 0.7434 0
M  V30 88 Ba -2.5376 -0.2794 -6.0081 0
M  V30 89 Ga -3.3405 -1.2171 -5.2033 0
M  V30 90 Ba -4.0946 -2.1613 -4.3599 0
M  V30 91 Ba -3.3755 -4.4770 -3.9200 0
M  V30 92 Ga -2.1060 -4.9575 -4.5057 0
M  V30 93 Ba -0.8238 -5.4172 -5.0804 0
M  V30 94 Ba -0.3232 -1.0203 -6.7547 0
M  V30 95 Ga 0.1153 -2.4198 -6.5897 0
M  V30 96 Ba 0.5572 -3.8208 -6.4475 0
M  V30 97 Ba 2.6781 -0.6109 6.2158 0
M  V30 98 Ga 1.4118 -1.1589 5.6948 0
M  V30 99 Ba 0.1443 -1.6352 5.1101 0
M  V30 END ATOM
M  V30 BEGIN BOND
M  V30 1 1 1 2
M  V30 2 1 1 3
M  V30 3 1 1 4
M  V30 4 1 1 5
M  V30 5 1 6 7
M  V30 6 1 6 8
M  V30 7 1 6 9
M  V30 8 1 6 10
M  V30 9 1 11 12
M  V30 10 1 11 13
M  V30 11 1 11 14
M  V30 12 1 11 15
M  V30 13 1 16 17
M  V30 14 1 16 18
M  V30 15 1 16 19
M  V30 16 1 16 20
M  V30 17 1 21 22
M  V30 18 1 21 23
M  V30 19 1 21 24
M  V30 20 1 21 25
M  V30 21 1 26 27
M  V30 22 1 26 28
M  V30 23 1 26 29
M  V30 24 1 26 30
M  V30 25 1 31 32
M  V30 26 1 31 33
M  V30 27 1 31 34
M  V30 28 1 31 35
M  V30 29 1 36 37
M  V30 30 1 36 38
M  V30 31 1 36 39
M  V30 32 1 36 40
M  V30 33 1 41 42
M  V30 34 1 41 43
M  V30 35 1 41 44
M  V30 36 1 41 45
M  V30 37 1 46 47
M  V30 38 1 47 48
M  V30 39 1 49 50
M  V30 40 1 50 51
M  V30 41 1 52 53
M  V30 42 1 53 54
M  V30 43 1 55 56
M  V30 44 1 56 57
M  V30 45 1 58 59
M  V30 46 1 59 60
M  V30 47 1 61 62
M  V30 48 1 62 63
M  V30 49 1 64 65
M  V30 50 1 65 66
M  V30 51 1 67 68
M  V30 52 1 68 69
M  V30 53 1 70 71
M  V30 54 1 71 72
M  V30 55 1 73 74
M  V30 56 1 74 75
M  V30 57 1 76 77
M  V30 58 1 77 78
M  V30 59 1 79 80
M  V30 60 1 80 81
M  V30 61 1 82 83
M  V30 62 1 83 84
M  V30 63 1 85 86
M  V30 64 1 86 87
M  V30 65 1 88 89
M  V30 66 1 89 90
M  V30 67 1 91 92
M  V30 68 1 92 93
M  V30 69 1 94 95
M  V30 70 1 95 96
M  V30 71 1 97 98
M  V30 72 1 98 99
M  V30 73 1 2 46
M  V30 74 1 3 94
M  V30 75 1 4 67
M  V30 76 1 5 88
M  V30 77 1 7 73
M  V30 78 1 8 55
M  V30 79 1 9 64
M  V30 80 1 10 82
M  V30 81 1 12 58
M  V30 82 1 13 97
M  V30 83 1 14 61
M  V30 84 1 15 52
M  V30 85 1 17 63
M  V30 86 1 18 79
M  V30 87 1 19 76
M  V30 88 1 20 85
M  V30 89 1 22 75
M  V30 90 1 23 99
M  V30 91 1 24 78
M  V30 92 1 25 49
M  V30 93 1 27 81
M  V30 94 1 28 70
M  V30 95 1 29 69
M  V30 96 1 30 87
M  V30 97 1 32 48
M  V30 98 1 33 72
M  V30 99 1 34 54
M  V30 100 1 35 60
M  V30 101 1 37 51
M  V30 102 1 38 91
M  V30 103 1 39 66
M  V30 104 1 40 90
M  V30 105 1 42 57
M  V30 106 1 43 96
M  V30 107 1 44 93
M  V30 108 1 45 84
M  V30 END BOND
M  V30 END CTAB
M  END

$$$$
