
     RDKit          3D

  0  0  0  0  0  0  0  0  0  0999 V3000
M  V30 BEGIN CTAB
M  V30 COUNTS 99 108 0 0 0
M  V30 BEGIN ATOM
M  V30 1 Pd -3.4322 2.6974 0.5147 0
M  V30 2 Pb -2.5420 2.5484 0.0913 0
M  V30 3 Pb -4.3175 2.9372 0.9065 0
M  V30 4 Pb -3.9164 2.3944 -0.3209 0
M  V30 5 Pb -2.9198 3.0395 1.3002 0
M  V30 6 Pd -5.7300 4.9175 -4.0137 0
M  V30 7 Pb -4.9320 4.7779 -4.6224 0
M  V30 8 Pb -5.6520 3.9673 -3.6885 0
M  V30 9 Pb -6.4657 5.0525 -3.3536 0
M  V30 10 Pb -5.6709 5.8955 -4.1878 0
M  V30 11 Pd 2.6717 -4.2303 -2.1884 0
M  V30 12 Pb 2.3367 -5.1142 -1.8582 0
M  V30 13 Pb 2.9748 -3.3110 -2.4349 0
M  V30 14 Pb 3.3644 -4.2613 -1.4725 0
M  V30 15 Pb 1.9967 -4.1856 -2.9262 0
M  V30 16 Pd 4.3811 -4.4648 5.3516 0
M  V30 17 Pb 4.1090 -4.4684 6.3114 0
M  V30 18 Pb 4.0210 -5.3892 5.2331 0
M  V30 19 Pb 4.5067 -3.4622 5.3945 0
M  V30 20 Pb 4.6815 -4.4578 4.4011 0
M  V30 21 Pd -0.2415 -0.3037 -3.2399 0
M  V30 22 Pb -0.7578 -0.8745 -2.6058 0
M  V30 23 Pb 0.2879 0.2742 -3.8593 0
M  V30 24 Pb -0.1753 -1.1004 -3.8391 0
M  V30 25 Pb -0.2499 0.4577 -2.5978 0
M  V30 26 Pd 0.0205 5.1637 -4.1213 0
M  V30 27 Pb -0.7636 4.9469 -4.7233 0
M  V30 28 Pb 0.7315 5.3619 -3.4436 0
M  V30 29 Pb -0.3851 6.0628 -3.9792 0
M  V30 30 Pb 0.4598 4.2954 -4.3664 0
M  V30 31 Pd 0.1643 -5.4935 2.4095 0
M  V30 32 Pb -0.4000 -4.9849 1.7627 0
M  V30 33 Pb -0.3251 -4.9838 3.1259 0
M  V30 34 Pb 0.5741 -6.0007 1.6447 0
M  V30 35 Pb 0.7400 -6.0112 3.0554 0
M  V30 36 Pd 1.5033 2.6061 0.3278 0
M  V30 37 Pb 1.2692 1.6888 0.6558 0
M  V30 38 Pb 2.0392 2.1667 -0.3922 0
M  V30 39 Pb 0.9425 3.0169 1.0511 0
M  V30 40 Pb 1.7463 3.5020 -0.0507 0
M  V30 41 Pd 0.6664 -0.8881 4.8767 0
M  V30 42 Pb 1.6482 -0.6731 4.9684 0
M  V30 43 Pb 0.5970 -0.9511 5.8699 0
M  V30 44 Pb -0.1998 -1.3771 4.8063 0
M  V30 45 Pb 0.7187 -0.8423 3.8782 0
M  V30 46 Ag 3.8816 -4.2904 -0.9347 0
M  V30 47 Fe 4.4113 -4.3690 1.3752 0
M  V30 48 Ag 4.9136 -4.4470 3.6913 0
M  V30 49 Ag -5.3933 6.5810 -4.2265 0
M  V30 50 Fe -3.1045 7.1389 -4.1080 0
M  V30 51 Ag -0.7928 6.6853 -3.9644 0
M  V30 52 Ag -5.0083 3.1928 1.0053 0
M  V30 53 Fe -6.4026 4.2344 -0.5879 0
M  V30 54 Ag -6.8913 5.0597 -2.7439 0
M  V30 55 Ag -1.1242 -1.3312 -2.1416 0
M  V30 56 Fe -1.0067 -2.9591 -0.4205 0
M  V30 57 Ag -0.8277 -4.5826 1.2996 0
M  V30 58 Ag 3.8099 -4.3316 6.9764 0
M  V30 59 Fe 2.1232 -2.7640 7.4513 0
M  V30 60 Ag 0.6606 -1.1404 6.5842 0
M  V30 61 Ag 3.1658 -2.5979 -2.5605 0
M  V30 62 Fe 2.8593 -0.3641 -1.8185 0
M  V30 63 Ag 2.4144 1.7865 -0.9176 0
M  V30 64 Ba 1.1125 0.9753 0.8347 0
M  V30 65 Ga 0.9292 0.1116 2.0183 0
M  V30 66 Ba 0.7270 -0.8421 3.1275 0
M  V30 67 Ba -0.7792 -4.5745 3.5727 0
M  V30 68 Ga -0.7897 -3.2251 4.1820 0
M  V30 69 Ba -0.7607 -1.8732 4.7846 0
M  V30 70 Ba 4.5192 -2.6995 5.3925 0
M  V30 71 Ga 3.4740 -1.6460 5.2296 0
M  V30 72 Ba 2.4018 -0.6206 5.0637 0
M  V30 73 Ba -4.2862 2.1576 -0.9437 0
M  V30 74 Ga -4.9153 2.7369 -2.1624 0
M  V30 75 Ba -5.5554 3.2752 -3.3941 0
M  V30 76 Ba 0.6923 0.7397 -4.2847 0
M  V30 77 Ga 0.7330 2.2082 -4.4384 0
M  V30 78 Ba 0.8030 3.6728 -4.6165 0
M  V30 79 Ba -2.4449 3.2981 1.8180 0
M  V30 80 Ga -0.9695 3.3203 1.7617 0
M  V30 81 Ba 0.4976 3.2885 1.5949 0
M  V30 82 Ba -4.3381 4.6688 -5.0892 0
M  V30 83 Ga -2.8488 4.7424 -5.0795 0
M  V30 84 Ba -1.3609 4.7868 -5.1688 0
M  V30 85 Ba 2.1088 -5.7579 -1.5437 0
M  V30 86 Ga 1.4710 -6.0760 -0.2466 0
M  V30 87 Ba 0.8345 -6.3898 1.0522 0
M  V30 88 Ba 1.2245 5.5124 -2.8957 0
M  V30 89 Ga 1.5950 4.8377 -1.6333 0
M  V30 90 Ba 1.9530 4.1491 -0.3748 0
M  V30 91 Ba 1.5157 -4.0955 -3.4959 0
M  V30 92 Ga 0.6820 -2.9475 -3.9008 0
M  V30 93 Ba -0.1133 -1.7454 -4.2155 0
M  V30 94 Ba -1.8505 2.5118 -0.1901 0
M  V30 95 Ga -1.0693 1.7372 -1.1662 0
M  V30 96 Ba -0.2012 1.0264 -2.1173 0
M  V30 97 Ba 3.6419 -6.0250 5.1087 0
M  V30 98 Ga 2.4155 -6.2479 4.3071 0
M  V30 99 Ba 1.1872 -6.4338 3.4988 0
M  V30 END ATOM
M  V30 BEGIN BOND
M  V30 1 1 1 2
M  V30 2 1 1 3
M  V30 3 1 1 4
M  V30 4 1 1 5
M  V30 5 1 6 7
M  V30 6 1 6 8
M  V30 7 1 6 9
M  V30 8 1 6 10
M  V30 9 1 11 12
M  V30 10 1 11 13
M  V30 11 1 11 14
M  V30 12 1 11 15
M  V30 13 1 16 17
M  V30 14 1 16 18
M  V30 15 1 16 19
M  V30 16 1 16 20
M  V30 17 1 21 22
M  V30 18 1 21 23
M  V30 19 1 21 24
M  V30 20 1 21 25
M  V30 21 1 26 27
M  V30 22 1 26 28
M  V30 23 1 26 29
M  V30 24 1 26 30
M  V30 25 1 31 32
M  V30 26 1 31 33
M  V30 27 1 31 34
M  V30 28 1 31 35
M  V30 29 1 36 37
M  V30 30 1 36 38
M  V30 31 1 36 39
M  V30 32 1 36 40
M  V30 33 1 41 42
M  V30 34 1 41 43
M  V30 35 1 41 44
M  V30 36 1 41 45
M  V30 37 1 46 47
M  V30 38 1 47 48
M  V30 39 1 49 50
M  V30 40 1 50 51
M  V30 41 1 52 53
M  V30 42 1 53 54
M  V30 43 1 55 56
M  V30 44 1 56 57
M  V30 45 1 58 59
M  V30 46 1 59 60
M  V30 47 1 61 62
M  V30 48 1 62 63
M  V30 49 1 64 65
M  V30 50 1 65 66
M  V30 51 1 67 68
M  V30 52 1 68 69
M  V30 53 1 70 71
M  V30 54 1 71 72
M  V30 55 1 73 74
M  V30 56 1 74 75
M  V30 57 1 76 77
M  V30 58 1 77 78
M  V30 59 1 79 80
M  V30 60 1 80 81
M  V30 61 1 82 83
M  V30 62 1 83 84
M  V30 63 1 85 86
M  V30 64 1 86 87
M  V30 65 1 88 89
M  V30 66 1 89 90
M  V30 67 1 91 92
M  V30 68 1 92 93
M  V30 69 1 94 95
M  V30 70 1 95 96
M  V30 71 1 97 98
M  V30 72 1 98 99
M  V30 73 1 2 94
M  V30 74 1 3 52
M  V30 75 1 4 73
M  V30 76 1 5 79
M  V30 77 1 7 82
M  V30 78 1 8 75
M  V30 79 1 9 54
M  V30 80 1 10 49
M  V30 81 1 12 85
M  V30 82 1 13 61
M  V30 83 1 14 46
M  V30 84 1 15 91
M  V30 85 1 17 58
M  V30 86 1 18 97
M  V30 87 1 19 70
M  V30 88 1 20 48
M  V30 89 1 22 55
M  V30 90 1 23 76
M  V30 91 1 24 93
M  V30 92 1 25 96
M  V30 93 1 27 84
M  V30 94 1 28 88
M  V30 95 1 29 51
M  V30 96 1 30 78
M  V30 97 1 32 57
M  V30 98 1 33 67
M  V30 99 1 34 87
M  V30 100 1 35 99
M  V30 101 1 37 64
M  V30 102 1 38 63
M  V30 103 1 39 81
M  V30 104 1 40 90
M  V30 105 1 42 72
M  V30 106 1 43 60
M  V30 107 1 44 69
M  V30 108 1 45 66
M  V30 END BOND
M  V30 END CTAB
M  END

$$$$
