
     RDKit          3D

  0  0  0  0  0  0  0  0  0  0999 V3000
M  V30 BEGIN CTAB
M  V30 COUNTS 99 108 0 0 0
M  V30 BEGIN ATOM
M  V30 1 Pd 1.5413 -1.5491 -3.6521 0
M  V30 2 Pb 0.6652 -1.5072 -4.1413 0
M  V30 3 Pb 1.7655 -0.6317 -3.9725 0
M  V30 4 Pb 1.3985 -2.5155 -3.4313 0
M  V30 5 Pb 2.3934 -1.5111 -3.1302 0
M  V30 6 Pd 2.0694 -6.1605 0.0563 0
M  V30 7 Pb 2.4193 -5.3015 0.4304 0
M  V30 8 Pb 2.1451 -6.5609 0.9646 0
M  V30 9 Pb 1.8928 -5.7706 -0.8497 0
M  V30 10 Pb 1.5499 -6.9680 -0.2054 0
M  V30 11 Pd -0.4403 -4.2700 3.7773 0
M  V30 12 Pb -0.8682 -3.3698 3.8293 0
M  V30 13 Pb 0.0237 -5.1529 3.7999 0
M  V30 14 Pb -1.3123 -4.6842 4.0479 0
M  V30 15 Pb 0.4068 -3.8697 3.4116 0
M  V30 16 Pd -3.8872 -1.3280 -2.4328 0
M  V30 17 Pb -4.4467 -1.4801 -1.6128 0
M  V30 18 Pb -4.0046 -0.3373 -2.3208 0
M  V30 19 Pb -3.8785 -2.3131 -2.5913 0
M  V30 20 Pb -3.3020 -1.2144 -3.2408 0
M  V30 21 Pd 0.7027 3.2614 4.5393 0
M  V30 22 Pb 1.3833 3.9881 4.4420 0
M  V30 23 Pb -0.0398 3.9139 4.4110 0
M  V30 24 Pb 0.0333 2.5214 4.5522 0
M  V30 25 Pb 1.4463 2.5977 4.5872 0
M  V30 26 Pd -4.4901 -5.5320 0.7399 0
M  V30 27 Pb -4.4870 -5.4475 -0.2535 0
M  V30 28 Pb -4.9128 -4.6255 0.8045 0
M  V30 29 Pb -4.4039 -5.6002 1.7370 0
M  V30 30 Pb -4.0186 -6.4028 0.6195 0
M  V30 31 Pd 2.3268 6.1055 -2.9751 0
M  V30 32 Pb 1.4924 6.2004 -3.5160 0
M  V30 33 Pb 3.1757 5.9997 -2.4516 0
M  V30 34 Pb 2.0092 6.8559 -2.3949 0
M  V30 35 Pb 2.5691 5.3199 -3.5358 0
M  V30 36 Pd 4.6112 3.1366 1.3183 0
M  V30 37 Pb 4.8351 3.7958 0.5959 0
M  V30 38 Pb 4.4048 2.4984 2.0600 0
M  V30 39 Pb 4.8064 2.3551 0.7221 0
M  V30 40 Pb 4.3771 3.8908 1.9340 0
M  V30 41 Pd -2.3790 6.3770 -1.2950 0
M  V30 42 Pb -3.0267 5.6282 -1.4456 0
M  V30 43 Pb -1.6704 7.0695 -1.1440 0
M  V30 44 Pb -2.1567 6.3895 -2.2661 0
M  V30 45 Pb -2.5556 6.3553 -0.3138 0
M  V30 46 Ag 2.0070 0.0229 -4.2410 0
M  V30 47 Fe 2.3527 2.3645 -4.1027 0
M  V30 48 Ag 2.6832 4.7071 -3.9442 0
M  V30 49 Ag -4.1831 0.3910 -2.2415 0
M  V30 50 Fe -3.7797 2.7095 -1.8985 0
M  V30 51 Ag -3.4868 5.0459 -1.5636 0
M  V30 52 Ag -1.1735 -2.6929 3.9195 0
M  V30 53 Fe -0.8550 -0.3604 4.2166 0
M  V30 54 Ag -0.4604 1.9609 4.5092 0
M  V30 55 Ag 3.0189 -1.3752 -2.7387 0
M  V30 56 Fe 4.0357 0.1371 -1.2129 0
M  V30 57 Ag 4.9163 1.7351 0.3103 0
M  V30 58 Ag 1.0240 -7.4878 -0.2893 0
M  V30 59 Fe -1.3238 -7.5214 0.0192 0
M  V30 60 Ag -3.5913 -6.9931 0.4550 0
M  V30 61 Ag -0.5991 4.3769 4.2375 0
M  V30 62 Fe -1.7038 5.4148 2.4146 0
M  V30 63 Ag -2.6255 6.3258 0.4294 0
M  V30 64 Ba 0.8585 6.2629 -3.9097 0
M  V30 65 Ga -0.5522 6.3362 -3.4994 0
M  V30 66 Ba -1.9249 6.4021 -2.9752 0
M  V30 67 Ba -4.8567 -1.6094 -0.9929 0
M  V30 68 Ga -5.0409 -2.7639 -0.0853 0
M  V30 69 Ba -5.2074 -3.9330 0.8068 0
M  V30 70 Ba -3.9331 -3.0473 -2.7235 0
M  V30 71 Ga -4.1776 -4.2244 -1.8750 0
M  V30 72 Ba -4.4218 -5.3779 -0.9945 0
M  V30 73 Ba 3.8335 5.9138 -2.0957 0
M  V30 74 Ga 4.3934 5.0962 -0.9978 0
M  V30 75 Ba 5.0279 4.3164 0.0869 0
M  V30 76 Ba 2.1067 -6.8474 1.6516 0
M  V30 77 Ga 1.2936 -6.3722 2.7792 0
M  V30 78 Ba 0.4325 -5.7788 3.8114 0
M  V30 79 Ba 2.5854 -4.6726 0.8064 0
M  V30 80 Ga 1.8525 -4.0881 1.9529 0
M  V30 81 Ba 1.0367 -3.6026 3.0899 0
M  V30 82 Ba 0.0125 -1.4213 -4.5099 0
M  V30 83 Ga -1.4219 -1.3046 -4.1603 0
M  V30 84 Ba -2.8661 -1.1826 -3.8555 0
M  V30 85 Ba 1.6942 7.3922 -1.9747 0
M  V30 86 Ga 0.3068 7.5184 -1.4835 0
M  V30 87 Ba -1.1023 7.5516 -1.0409 0
M  V30 88 Ba 2.0176 2.1158 4.5608 0
M  V30 89 Ga 3.1490 2.0396 3.6204 0
M  V30 90 Ba 4.2435 2.0436 2.6341 0
M  V30 91 Ba 1.3173 -3.2590 -3.3561 0
M  V30 92 Ga 1.5304 -4.3528 -2.3862 0
M  V30 93 Ba 1.6859 -5.5532 -1.5393 0
M  V30 94 Ba 1.9152 4.5029 4.3187 0
M  V30 95 Ga 3.0568 4.5077 3.3826 0
M  V30 96 Ba 4.1714 4.4275 2.4178 0
M  V30 97 Ba -1.9871 -4.9787 4.2053 0
M  V30 98 Ga -3.1538 -5.3230 3.3630 0
M  V30 99 Ba -4.2951 -5.6516 2.4806 0
M  V30 END ATOM
M  V30 BEGIN BOND
M  V30 1 1 1 2
M  V30 2 1 1 3
M  V30 3 1 1 4
M  V30 4 1 1 5
M  V30 5 1 6 7
M  V30 6 1 6 8
M  V30 7 1 6 9
M  V30 8 1 6 10
M  V30 9 1 11 12
M  V30 10 1 11 13
M  V30 11 1 11 14
M  V30 12 1 11 15
M  V30 13 1 16 17
M  V30 14 1 16 18
M  V30 15 1 16 19
M  V30 16 1 16 20
M  V30 17 1 21 22
M  V30 18 1 21 23
M  V30 19 1 21 24
M  V30 20 1 21 25
M  V30 21 1 26 27
M  V30 22 1 26 28
M  V30 23 1 26 29
M  V30 24 1 26 30
M  V30 25 1 31 32
M  V30 26 1 31 33
M  V30 27 1 31 34
M  V30 28 1 31 35
M  V30 29 1 36 37
M  V30 30 1 36 38
M  V30 31 1 36 39
M  V30 32 1 36 40
M  V30 33 1 41 42
M  V30 34 1 41 43
M  V30 35 1 41 44
M  V30 36 1 41 45
M  V30 37 1 46 47
M  V30 38 1 47 48
M  V30 39 1 49 50
M  V30 40 1 50 51
M  V30 41 1 52 53
M  V30 42 1 53 54
M  V30 43 1 55 56
M  V30 44 1 56 57
M  V30 45 1 58 59
M  V30 46 1 59 60
M  V30 47 1 61 62
M  V30 48 1 62 63
M  V30 49 1 64 65
M  V30 50 1 65 66
M  V30 51 1 67 68
M  V30 52 1 68 69
M  V30 53 1 70 71
M  V30 54 1 71 72
M  V30 55 1 73 74
M  V30 56 1 74 75
M  V30 57 1 76 77
M  V30 58 1 77 78
M  V30 59 1 79 80
M  V30 60 1 80 81
M  V30 61 1 82 83
M  V30 62 1 83 84
M  V30 63 1 85 86
M  V30 64 1 86 87
M  V30 65 1 88 89
M  V30 66 1 89 90
M  V30 67 1 91 92
M  V30 68 1 92 93
M  V30 69 1 94 95
M  V30 70 1 95 96
M  V30 71 1 97 98
M  V30 72 1 98 99
M  V30 73 1 2 82
M  V30 74 1 3 46
M  V30 75 1 4 91
M  V30 76 1 5 55
M  V30 77 1 7 79
M  V30 78 1 8 76
M  V30 79 1 9 93
M  V30 80 1 10 58
M  V30 81 1 12 52
M  V30 82 1 13 78
M  V30 83 1 14 97
M  V30 84 1 15 81
M  V30 85 1 17 67
M  V30 86 1 18 49
M  V30 87 1 19 70
M  V30 88 1 20 84
M  V30 89 1 22 94
M  V30 90 1 23 61
M  V30 91 1 24 54
M  V30 92 1 25 88
M  V30 93 1 27 72
M  V30 94 1 28 69
M  V30 95 1 29 99
M  V30 96 1 30 60
M  V30 97 1 32 64
M  V30 98 1 33 73
M  V30 99 1 34 85
M  V30 100 1 35 48
M  V30 101 1 37 75
M  V30 102 1 38 90
M  V30 103 1 39 57
M  V30 104 1 40 96
M  V30 105 1 42 51
M  V30 106 1 43 87
M  V30 107 1 44 66
M  V30 108 1 45 63
M  V30 END BOND
M  V30 END CTAB
M  END

$$$$
