
     RDKit          3D

  0  0  0  0  0  0  0  0  0  0999 V3000
M  V30 BEGIN CTAB
M  V30 COUNTS 99 108 0 0 0
M  V30 BEGIN ATOM
M  V30 1 Pd -3.2898 -2.9694 -0.6812 0
M  V30 2 Pb -3.8840 -2.1783 -0.8209 0
M  V30 3 Pb -3.5586 -3.3194 -1.5787 0
M  V30 4 Pb -3.1318 -2.6480 0.2538 0
M  V30 5 Pb -2.6433 -3.7231 -0.5470 0
M  V30 6 Pd -0.0866 -1.1653 6.4563 0
M  V30 7 Pb 0.6147 -1.0243 7.1511 0
M  V30 8 Pb 0.5895 -1.6560 5.9068 0
M  V30 9 Pb -0.7861 -1.2770 5.7500 0
M  V30 10 Pb -0.6854 -0.5532 6.9703 0
M  V30 11 Pd 3.5432 1.3955 5.2644 0
M  V30 12 Pb 3.5174 1.6915 4.3119 0
M  V30 13 Pb 3.5709 0.4403 4.9661 0
M  V30 14 Pb 3.3813 2.3294 5.5822 0
M  V30 15 Pb 3.5355 1.0768 6.2086 0
M  V30 16 Pd -3.2432 4.3274 0.7103 0
M  V30 17 Pb -3.6103 4.0507 1.5971 0
M  V30 18 Pb -2.8874 4.6074 -0.1824 0
M  V30 19 Pb -2.6070 4.9426 1.1784 0
M  V30 20 Pb -3.8366 3.6581 0.2649 0
M  V30 21 Pd 5.0015 -0.1951 -2.2311 0
M  V30 22 Pb 4.7597 -1.0688 -1.7663 0
M  V30 23 Pb 5.0670 0.6372 -2.7755 0
M  V30 24 Pb 4.6240 0.3483 -1.4827 0
M  V30 25 Pb 5.3882 -0.7045 -2.9901 0
M  V30 26 Pd -1.0768 3.9823 5.5427 0
M  V30 27 Pb -0.9517 4.6336 4.7911 0
M  V30 28 Pb -2.0013 3.7986 5.2131 0
M  V30 29 Pb -0.1420 4.1734 5.8542 0
M  V30 30 Pb -1.2479 3.3370 6.2918 0
M  V30 31 Pd -2.0213 -2.6884 -6.0804 0
M  V30 32 Pb -2.5078 -1.8168 -6.1496 0
M  V30 33 Pb -1.5682 -3.5785 -6.0092 0
M  V30 34 Pb -1.2683 -2.2855 -6.6036 0
M  V30 35 Pb -2.7598 -3.0803 -5.5372 0
M  V30 36 Pd 1.6075 -4.9412 -2.8205 0
M  V30 37 Pb 0.9836 -5.3431 -3.4887 0
M  V30 38 Pb 2.2881 -4.9121 -3.5418 0
M  V30 39 Pb 0.9292 -5.0529 -2.0880 0
M  V30 40 Pb 2.2603 -4.4602 -2.2004 0
M  V30 41 Pd -0.3159 2.2625 -6.1155 0
M  V30 42 Pb -0.6323 3.0207 -5.5446 0
M  V30 43 Pb -0.0008 1.4713 -6.6437 0
M  V30 44 Pb -1.2523 1.9278 -6.2080 0
M  V30 45 Pb 0.6278 2.5646 -5.9839 0
M  V30 46 Ag -2.6342 4.8113 -0.8595 0
M  V30 47 Fe -1.7475 4.2134 -2.9810 0
M  V30 48 Ag -0.8617 3.5721 -5.0902 0
M  V30 49 Ag 3.4819 1.8839 3.5902 0
M  V30 50 Fe 3.9229 1.3335 1.3242 0
M  V30 51 Ag 4.3557 0.7978 -0.9469 0
M  V30 52 Ag 4.9747 1.2212 -3.2312 0
M  V30 53 Fe 3.2647 2.1360 -4.5970 0
M  V30 54 Ag 1.3380 2.7526 -5.8362 0
M  V30 55 Ag -4.2846 -1.5513 -0.9089 0
M  V30 56 Fe -4.3548 0.7897 -0.5218 0
M  V30 57 Ag -4.2455 3.1129 -0.0461 0
M  V30 58 Ag 5.5574 -1.1654 -3.5411 0
M  V30 59 Fe 4.4924 -3.1501 -4.2128 0
M  V30 60 Ag 2.8406 -4.8121 -4.0221 0
M  V30 61 Ag -3.1091 -2.4033 0.9638 0
M  V30 62 Fe -2.1290 -1.8997 3.0687 0
M  V30 63 Ag -1.3259 -1.3335 5.2319 0
M  V30 64 Ba -2.8664 -1.1605 -6.2120 0
M  V30 65 Ga -2.4284 0.2470 -6.2406 0
M  V30 66 Ba -1.9405 1.6382 -6.2634 0
M  V30 67 Ba -3.8814 3.8475 2.2650 0
M  V30 68 Ga -3.3011 3.7488 3.6153 0
M  V30 69 Ba -2.6894 3.6612 4.9524 0
M  V30 70 Ba -3.8333 -3.5792 -2.2269 0
M  V30 71 Ga -3.5448 -3.4799 -3.6684 0
M  V30 72 Ba -3.2859 -3.4041 -5.1169 0
M  V30 73 Ba -2.1421 -4.2702 -0.4251 0
M  V30 74 Ga -0.8555 -4.7057 -1.0112 0
M  V30 75 Ba 0.4340 -5.2026 -1.5388 0
M  V30 76 Ba -2.1147 5.3697 1.5519 0
M  V30 77 Ga -1.4912 5.2608 2.8872 0
M  V30 78 Ba -0.8827 5.1271 4.2272 0
M  V30 79 Ba -1.0711 -0.0327 7.3467 0
M  V30 80 Ga -1.2645 1.4113 7.1016 0
M  V30 81 Ba -1.4419 2.8538 6.8366 0
M  V30 82 Ba -1.2944 -4.2733 -5.9240 0
M  V30 83 Ga -0.3716 -4.9434 -4.9876 0
M  V30 84 Ba 0.5550 -5.6011 -4.0461 0
M  V30 85 Ba 1.1623 -1.9252 5.5042 0
M  V30 86 Ga 2.3708 -1.1841 5.0930 0
M  V30 87 Ba 3.4969 -0.2832 4.7780 0
M  V30 88 Ba 1.1680 -0.8705 7.6283 0
M  V30 89 Ga 2.3583 -0.0523 7.3662 0
M  V30 90 Ba 3.4631 0.7907 6.8935 0
M  V30 91 Ba -0.7182 -1.9446 -6.9860 0
M  V30 92 Ga -0.2324 -0.5493 -7.0183 0
M  V30 93 Ba 0.2202 0.8576 -7.0182 0
M  V30 94 Ba 4.5470 -1.7231 -1.4224 0
M  V30 95 Ga 3.6372 -2.8960 -1.6376 0
M  V30 96 Ba 2.7691 -4.1150 -1.7357 0
M  V30 97 Ba 3.1918 3.0065 5.8436 0
M  V30 98 Ga 1.8847 3.6873 5.9550 0
M  V30 99 Ba 0.5643 4.3439 6.0552 0
M  V30 END ATOM
M  V30 BEGIN BOND
M  V30 1 1 1 2
M  V30 2 1 1 3
M  V30 3 1 1 4
M  V30 4 1 1 5
M  V30 5 1 6 7
M  V30 6 1 6 8
M  V30 7 1 6 9
M  V30 8 1 6 10
M  V30 9 1 11 12
M  V30 10 1 11 13
M  V30 11 1 11 14
M  V30 12 1 11 15
M  V30 13 1 16 17
M  V30 14 1 16 18
M  V30 15 1 16 19
M  V30 16 1 16 20
M  V30 17 1 21 22
M  V30 18 1 21 23
M  V30 19 1 21 24
M  V30 20 1 21 25
M  V30 21 1 26 27
M  V30 22 1 26 28
M  V30 23 1 26 29
M  V30 24 1 26 30
M  V30 25 1 31 32
M  V30 26 1 31 33
M  V30 27 1 31 34
M  V30 28 1 31 35
M  V30 29 1 36 37
M  V30 30 1 36 38
M  V30 31 1 36 39
M  V30 32 1 36 40
M  V30 33 1 41 42
M  V30 34 1 41 43
M  V30 35 1 41 44
M  V30 36 1 41 45
M  V30 37 1 46 47
M  V30 38 1 47 48
M  V30 39 1 49 50
M  V30 40 1 50 51
M  V30 41 1 52 53
M  V30 42 1 53 54
M  V30 43 1 55 56
M  V30 44 1 56 57
M  V30 45 1 58 59
M  V30 46 1 59 60
M  V30 47 1 61 62
M  V30 48 1 62 63
M  V30 49 1 64 65
M  V30 50 1 65 66
M  V30 51 1 67 68
M  V30 52 1 68 69
M  V30 53 1 70 71
M  V30 54 1 71 72
M  V30 55 1 73 74
M  V30 56 1 74 75
M  V30 57 1 76 77
M  V30 58 1 77 78
M  V30 59 1 79 80
M  V30 60 1 80 81
M  V30 61 1 82 83
M  V30 62 1 83 84
M  V30 63 1 85 86
M  V30 64 1 86 87
M  V30 65 1 88 89
M  V30 66 1 89 90
M  V30 67 1 91 92
M  V30 68 1 92 93
M  V30 69 1 94 95
M  V30 70 1 95 96
M  V30 71 1 97 98
M  V30 72 1 98 99
M  V30 73 1 2 55
M  V30 74 1 3 70
M  V30 75 1 4 61
M  V30 76 1 5 73
M  V30 77 1 7 88
M  V30 78 1 8 85
M  V30 79 1 9 63
M  V30 80 1 10 79
M  V30 81 1 12 49
M  V30 82 1 13 87
M  V30 83 1 14 97
M  V30 84 1 15 90
M  V30 85 1 17 67
M  V30 86 1 18 46
M  V30 87 1 19 76
M  V30 88 1 20 57
M  V30 89 1 22 94
M  V30 90 1 23 52
M  V30 91 1 24 51
M  V30 92 1 25 58
M  V30 93 1 27 78
M  V30 94 1 28 69
M  V30 95 1 29 99
M  V30 96 1 30 81
M  V30 97 1 32 64
M  V30 98 1 33 82
M  V30 99 1 34 91
M  V30 100 1 35 72
M  V30 101 1 37 84
M  V30 102 1 38 60
M  V30 103 1 39 75
M  V30 104 1 40 96
M  V30 105 1 42 48
M  V30 106 1 43 93
M  V30 107 1 44 66
M  V30 108 1 45 54
M  V30 END BOND
M  V30 END CTAB
M  END

$$$$
