
     RDKit          3D

  0  0  0  0  0  0  0  0  0  0999 V3000
M  V30 BEGIN CTAB
M  V30 COUNTS 99 108 0 0 0
M  V30 BEGIN ATOM
M  V30 1 Pd 1.4795 2.4896 -3.2821 0
M  V30 2 Pb 1.8503 3.4119 -3.1777 0
M  V30 3 Pb 1.1327 1.5494 -3.3432 0
M  V30 4 Pb 2.3930 2.1627 -3.5263 0
M  V30 5 Pb 0.5790 2.8492 -3.0491 0
M  V30 6 Pd -5.7253 -4.6475 -0.8635 0
M  V30 7 Pb -5.6626 -4.7293 0.1338 0
M  V30 8 Pb -4.7499 -4.8391 -0.9890 0
M  V30 9 Pb -6.6490 -4.2795 -0.8195 0
M  V30 10 Pb -5.8081 -4.5301 -1.8486 0
M  V30 11 Pd 0.3339 2.5374 4.1113 0
M  V30 12 Pb 0.2254 3.3478 3.5071 0
M  V30 13 Pb 0.0413 1.9322 3.3707 0
M  V30 14 Pb 0.5982 1.7460 4.6577 0
M  V30 15 Pb 0.6979 3.1261 4.8260 0
M  V30 16 Pd 4.4982 -3.6756 3.3563 0
M  V30 17 Pb 4.0925 -3.0445 4.0159 0
M  V30 18 Pb 5.3432 -3.1127 3.2556 0
M  V30 19 Pb 3.6273 -4.1643 3.3734 0
M  V30 20 Pb 4.8624 -4.3217 2.6951 0
M  V30 21 Pd -2.8834 -2.0876 2.7099 0
M  V30 22 Pb -3.5788 -2.7844 2.8825 0
M  V30 23 Pb -2.2013 -1.4113 2.4270 0
M  V30 24 Pb -2.1747 -2.7863 2.8214 0
M  V30 25 Pb -3.5905 -1.3870 2.6119 0
M  V30 26 Pd 7.5780 -0.4400 -0.4048 0
M  V30 27 Pb 7.6014 -0.7721 0.5573 0
M  V30 28 Pb 7.5975 0.5253 -0.1368 0
M  V30 29 Pb 7.3812 -0.1357 -1.3338 0
M  V30 30 Pb 7.5983 -1.3838 -0.7141 0
M  V30 31 Pd 3.5798 5.7765 0.8379 0
M  V30 32 Pb 3.3628 5.7052 -0.1390 0
M  V30 33 Pb 4.5439 5.5918 0.6558 0
M  V30 34 Pb 3.8048 5.9561 1.7897 0
M  V30 35 Pb 2.5986 5.7638 1.0952 0
M  V30 36 Pd -6.1524 1.8373 -2.4619 0
M  V30 37 Pb -6.2726 1.8929 -1.4738 0
M  V30 38 Pb -5.8936 1.6685 -3.4144 0
M  V30 39 Pb -6.8919 1.1657 -2.4633 0
M  V30 40 Pb -5.3879 2.4729 -2.4092 0
M  V30 41 Pd -2.8200 -1.7629 -3.9228 0
M  V30 42 Pb -2.5596 -2.5614 -3.3660 0
M  V30 43 Pb -1.9052 -1.3750 -3.7709 0
M  V30 44 Pb -3.1541 -0.9739 -4.4470 0
M  V30 45 Pb -3.6792 -2.2211 -4.1314 0
M  V30 46 Ag -4.1033 -0.8476 2.5187 0
M  V30 47 Fe -5.2646 0.5522 0.9940 0
M  V30 48 Ag -6.2840 1.8247 -0.7301 0
M  V30 49 Ag 2.9376 -4.4562 3.3640 0
M  V30 50 Fe 0.6288 -3.9423 3.1466 0
M  V30 51 Ag -1.6513 -3.3168 2.9171 0
M  V30 52 Ag 1.1004 3.6109 5.2124 0
M  V30 53 Fe 2.6937 5.1007 4.3326 0
M  V30 54 Ag 3.8588 6.0518 2.5228 0
M  V30 55 Ag 5.1845 -4.6775 2.1329 0
M  V30 56 Fe 6.4860 -3.8322 0.3646 0
M  V30 57 Ag 7.5528 -2.1122 -0.8355 0
M  V30 58 Ag 0.8982 1.1705 5.0292 0
M  V30 59 Fe 2.2966 -0.7373 4.8355 0
M  V30 60 Ag 3.7095 -2.6136 4.4945 0
M  V30 61 Ag -7.2547 -3.8588 -0.9255 0
M  V30 62 Fe -7.5965 -1.6233 -1.6357 0
M  V30 63 Ag -7.4022 0.6299 -2.3481 0
M  V30 64 Ag 3.0879 1.9362 -3.6965 0
M  V30 65 Fe 5.1490 1.0262 -2.9494 0
M  V30 66 Ag 7.1144 0.1050 -1.9889 0
M  V30 67 Ag -0.0791 3.1612 -2.8812 0
M  V30 68 Fe -2.4333 3.0576 -2.6197 0
M  V30 69 Ag -4.7863 2.9114 -2.3688 0
M  V30 70 Ag 7.6220 1.2680 -0.0195 0
M  V30 71 Fe 6.4993 3.3407 0.2806 0
M  V30 72 Ag 5.2437 5.3354 0.5810 0
M  V30 73 Ba -5.6294 -4.7736 0.8844 0
M  V30 74 Ga -4.8728 -4.0625 1.9346 0
M  V30 75 Ba -4.0937 -3.3251 2.9495 0
M  V30 76 Ba 2.1347 4.0997 -3.0899 0
M  V30 77 Ga 2.6718 4.8839 -1.9594 0
M  V30 78 Ba 3.2218 5.7270 -0.8787 0
M  V30 79 Ba 5.9847 -2.6923 3.1853 0
M  V30 80 Ga 6.7468 -1.8727 2.1878 0
M  V30 81 Ba 7.5942 -1.0323 1.2804 0
M  V30 82 Ba -5.8844 -4.3862 -2.5760 0
M  V30 83 Ga -5.1186 -3.5098 -3.4711 0
M  V30 84 Ba -4.2942 -2.6123 -4.2902 0
M  V30 85 Ba -4.0163 -4.8906 -1.1519 0
M  V30 86 Ga -3.1777 -4.0472 -2.0386 0
M  V30 87 Ba -2.3948 -3.1658 -2.9394 0
M  V30 88 Ba 0.1677 3.9618 3.0511 0
M  V30 89 Ga 1.0463 4.8150 2.1914 0
M  V30 90 Ba 1.8676 5.7076 1.3152 0
M  V30 91 Ba -5.5865 1.5329 -4.0878 0
M  V30 92 Ga -4.5399 0.5678 -4.4962 0
M  V30 93 Ba -3.4912 -0.4214 -4.8359 0
M  V30 94 Ba 0.9498 0.8188 -3.3654 0
M  V30 95 Ga -0.1912 -0.1103 -3.5260 0
M  V30 96 Ba -1.1777 -1.2051 -3.6618 0
M  V30 97 Ba -0.1254 1.4798 2.7959 0
M  V30 98 Ga -0.9424 0.2808 2.5240 0
M  V30 99 Ba -1.7180 -0.9140 2.1375 0
M  V30 END ATOM
M  V30 BEGIN BOND
M  V30 1 1 1 2
M  V30 2 1 1 3
M  V30 3 1 1 4
M  V30 4 1 1 5
M  V30 5 1 6 7
M  V30 6 1 6 8
M  V30 7 1 6 9
M  V30 8 1 6 10
M  V30 9 1 11 12
M  V30 10 1 11 13
M  V30 11 1 11 14
M  V30 12 1 11 15
M  V30 13 1 16 17
M  V30 14 1 16 18
M  V30 15 1 16 19
M  V30 16 1 16 20
M  V30 17 1 21 22
M  V30 18 1 21 23
M  V30 19 1 21 24
M  V30 20 1 21 25
M  V30 21 1 26 27
M  V30 22 1 26 28
M  V30 23 1 26 29
M  V30 24 1 26 30
M  V30 25 1 31 32
M  V30 26 1 31 33
M  V30 27 1 31 34
M  V30 28 1 31 35
M  V30 29 1 36 37
M  V30 30 1 36 38
M  V30 31 1 36 39
M  V30 32 1 36 40
M  V30 33 1 41 42
M  V30 34 1 41 43
M  V30 35 1 41 44
M  V30 36 1 41 45
M  V30 37 1 46 47
M  V30 38 1 47 48
M  V30 39 1 49 50
M  V30 40 1 50 51
M  V30 41 1 52 53
M  V30 42 1 53 54
M  V30 43 1 55 56
M  V30 44 1 56 57
M  V30 45 1 58 59
M  V30 46 1 59 60
M  V30 47 1 61 62
M  V30 48 1 62 63
M  V30 49 1 64 65
M  V30 50 1 65 66
M  V30 51 1 67 68
M  V30 52 1 68 69
M  V30 53 1 70 71
M  V30 54 1 71 72
M  V30 55 1 73 74
M  V30 56 1 74 75
M  V30 57 1 76 77
M  V30 58 1 77 78
M  V30 59 1 79 80
M  V30 60 1 80 81
M  V30 61 1 82 83
M  V30 62 1 83 84
M  V30 63 1 85 86
M  V30 64 1 86 87
M  V30 65 1 88 89
M  V30 66 1 89 90
M  V30 67 1 91 92
M  V30 68 1 92 93
M  V30 69 1 94 95
M  V30 70 1 95 96
M  V30 71 1 97 98
M  V30 72 1 98 99
M  V30 73 1 2 76
M  V30 74 1 3 94
M  V30 75 1 4 64
M  V30 76 1 5 67
M  V30 77 1 7 73
M  V30 78 1 8 85
M  V30 79 1 9 61
M  V30 80 1 10 82
M  V30 81 1 12 88
M  V30 82 1 13 97
M  V30 83 1 14 58
M  V30 84 1 15 52
M  V30 85 1 17 60
M  V30 86 1 18 79
M  V30 87 1 19 49
M  V30 88 1 20 55
M  V30 89 1 22 75
M  V30 90 1 23 99
M  V30 91 1 24 51
M  V30 92 1 25 46
M  V30 93 1 27 81
M  V30 94 1 28 70
M  V30 95 1 29 66
M  V30 96 1 30 57
M  V30 97 1 32 78
M  V30 98 1 33 72
M  V30 99 1 34 54
M  V30 100 1 35 90
M  V30 101 1 37 48
M  V30 102 1 38 91
M  V30 103 1 39 63
M  V30 104 1 40 69
M  V30 105 1 42 87
M  V30 106 1 43 96
M  V30 107 1 44 93
M  V30 108 1 45 84
M  V30 END BOND
M  V30 END CTAB
M  END

$$$$
