
     RDKit          3D

  0  0  0  0  0  0  0  0  0  0999 V3000
M  V30 BEGIN CTAB
M  V30 COUNTS 99 108 0 0 0
M  V30 BEGIN ATOM
M  V30 1 Pd -0.1891 -1.1811 -4.9302 0
M  V30 2 Pb -0.5179 -0.5943 -4.1867 0
M  V30 3 Pb 0.1540 -1.7229 -5.6966 0
M  V30 4 Pb -1.1207 -1.4078 -5.2209 0
M  V30 5 Pb 0.7509 -1.0150 -4.6303 0
M  V30 6 Pd -1.6190 -5.7529 -6.3267 0
M  V30 7 Pb -0.9547 -6.4909 -6.2082 0
M  V30 8 Pb -2.2325 -4.9618 -6.3511 0
M  V30 9 Pb -0.9566 -5.2310 -6.8567 0
M  V30 10 Pb -2.2417 -6.2488 -5.7253 0
M  V30 11 Pd -2.6400 0.9180 4.9774 0
M  V30 12 Pb -2.9794 1.8072 5.2997 0
M  V30 13 Pb -2.2463 0.0598 4.6442 0
M  V30 14 Pb -1.7762 1.1135 5.4302 0
M  V30 15 Pb -3.5004 0.6899 4.5197 0
M  V30 16 Pd 3.7876 5.0787 4.8966 0
M  V30 17 Pb 4.3492 5.7967 4.4929 0
M  V30 18 Pb 3.1524 5.7483 5.2869 0
M  V30 19 Pb 4.3151 4.3859 4.3732 0
M  V30 20 Pb 3.2599 4.3552 5.3303 0
M  V30 21 Pd -3.4988 -0.0567 -0.0199 0
M  V30 22 Pb -3.7786 0.8986 -0.0398 0
M  V30 23 Pb -3.1813 -0.9962 0.0965 0
M  V30 24 Pb -4.1380 -0.1848 0.7381 0
M  V30 25 Pb -2.8273 0.1441 -0.7382 0
M  V30 26 Pd -0.0953 -6.8015 -1.9118 0
M  V30 27 Pb 0.3014 -7.2836 -2.6932 0
M  V30 28 Pb 0.8046 -6.4810 -1.6116 0
M  V30 29 Pb -0.9995 -7.0842 -2.2311 0
M  V30 30 Pb -0.5251 -6.2739 -1.1842 0
M  V30 31 Pd -1.4333 5.9965 3.6800 0
M  V30 32 Pb -2.1262 5.6645 3.0440 0
M  V30 33 Pb -0.9384 6.3048 2.8662 0
M  V30 34 Pb -1.9669 5.6074 4.4364 0
M  V30 35 Pb -0.7298 6.3495 4.3103 0
M  V30 36 Pd 1.9642 -1.9631 -0.2827 0
M  V30 37 Pb 1.6578 -1.0221 -0.1325 0
M  V30 38 Pb 1.4567 -2.2315 0.5368 0
M  V30 39 Pb 2.4167 -1.6721 -1.1252 0
M  V30 40 Pb 2.2818 -2.9047 -0.4210 0
M  V30 41 Pd 3.7453 3.5324 -0.2194 0
M  V30 42 Pb 4.2984 3.1069 0.5084 0
M  V30 43 Pb 4.4533 4.2246 -0.3368 0
M  V30 44 Pb 3.1045 4.1452 -0.6710 0
M  V30 45 Pb 2.9928 2.8863 -0.0710 0
M  V30 46 Ag -1.1212 1.2587 5.7533 0
M  V30 47 Fe 0.8826 2.5219 5.7415 0
M  V30 48 Ag 2.8609 3.8226 5.6651 0
M  V30 49 Ag -0.6336 6.4365 2.1916 0
M  V30 50 Fe 0.9225 5.6925 0.5596 0
M  V30 51 Ag 2.5981 4.6811 -0.7837 0
M  V30 52 Ag -2.9482 -1.6881 0.2629 0
M  V30 53 Fe -1.9066 -3.7653 -0.2153 0
M  V30 54 Ag -0.8701 -5.8487 -0.6772 0
M  V30 55 Ag -3.9512 1.6199 0.0354 0
M  V30 56 Fe -3.3620 3.5784 1.2339 0
M  V30 57 Ag -2.6133 5.4124 2.5363 0
M  V30 58 Ag 4.7782 6.2224 4.0623 0
M  V30 59 Fe 5.2532 5.9694 1.7710 0
M  V30 60 Ag 4.9144 4.7970 -0.2408 0
M  V30 61 Ag -1.9111 -0.5615 4.3873 0
M  V30 62 Fe -0.4442 -1.5319 2.7895 0
M  V30 63 Ag 1.0361 -2.3868 1.1390 0
M  V30 64 Ba 1.4088 -0.3260 -0.0014 0
M  V30 65 Ga 1.9462 1.0503 0.0061 0
M  V30 66 Ba 2.3818 2.4615 0.0433 0
M  V30 67 Ba -2.6403 -6.6217 -5.2146 0
M  V30 68 Ga -2.2282 -6.9832 -3.8482 0
M  V30 69 Ba -1.6682 -7.2665 -2.5163 0
M  V30 70 Ba 0.3895 -2.1278 -6.2814 0
M  V30 71 Ga 0.0071 -3.4567 -6.7836 0
M  V30 72 Ba -0.4533 -4.7933 -7.1904 0
M  V30 73 Ba 4.6794 3.8550 3.9574 0
M  V30 74 Ga 4.6786 3.3708 2.5433 0
M  V30 75 Ba 4.6795 2.8862 1.1293 0
M  V30 76 Ba -1.7958 -1.6361 -5.4616 0
M  V30 77 Ga -2.2680 -2.9644 -5.9057 0
M  V30 78 Ba -2.6399 -4.3306 -6.3295 0
M  V30 79 Ba 1.4560 -0.9241 -4.3897 0
M  V30 80 Ga 2.1138 -1.1676 -3.0921 0
M  V30 81 Ba 2.7129 -1.4305 -1.7700 0
M  V30 82 Ba -0.4450 -7.0138 -6.0372 0
M  V30 83 Ga 0.0947 -7.3714 -4.7116 0
M  V30 84 Ba 0.5347 -7.6146 -3.3248 0
M  V30 85 Ba -3.1754 2.4860 5.5670 0
M  V30 86 Ga -2.7931 3.8854 5.2635 0
M  V30 87 Ba -2.4079 5.2832 4.9559 0
M  V30 88 Ba 1.4732 -6.2235 -1.3850 0
M  V30 89 Ga 1.9944 -4.9094 -0.9531 0
M  V30 90 Ba 2.5392 -3.6060 -0.5178 0
M  V30 91 Ba -4.1212 0.4691 4.1594 0
M  V30 92 Ga -4.3928 0.1174 2.7521 0
M  V30 93 Ba -4.5977 -0.2183 1.3297 0
M  V30 94 Ba -0.7061 -0.1012 -3.6505 0
M  V30 95 Ga -1.5541 0.0551 -2.4495 0
M  V30 96 Ba -2.3239 0.4020 -1.2360 0
M  V30 97 Ba 2.6220 6.2225 5.5333 0
M  V30 98 Ga 1.2014 6.4242 5.1588 0
M  V30 99 Ba -0.2201 6.6353 4.7933 0
M  V30 END ATOM
M  V30 BEGIN BOND
M  V30 1 1 1 2
M  V30 2 1 1 3
M  V30 3 1 1 4
M  V30 4 1 1 5
M  V30 5 1 6 7
M  V30 6 1 6 8
M  V30 7 1 6 9
M  V30 8 1 6 10
M  V30 9 1 11 12
M  V30 10 1 11 13
M  V30 11 1 11 14
M  V30 12 1 11 15
M  V30 13 1 16 17
M  V30 14 1 16 18
M  V30 15 1 16 19
M  V30 16 1 16 20
M  V30 17 1 21 22
M  V30 18 1 21 23
M  V30 19 1 21 24
M  V30 20 1 21 25
M  V30 21 1 26 27
M  V30 22 1 26 28
M  V30 23 1 26 29
M  V30 24 1 26 30
M  V30 25 1 31 32
M  V30 26 1 31 33
M  V30 27 1 31 34
M  V30 28 1 31 35
M  V30 29 1 36 37
M  V30 30 1 36 38
M  V30 31 1 36 39
M  V30 32 1 36 40
M  V30 33 1 41 42
M  V30 34 1 41 43
M  V30 35 1 41 44
M  V30 36 1 41 45
M  V30 37 1 46 47
M  V30 38 1 47 48
M  V30 39 1 49 50
M  V30 40 1 50 51
M  V30 41 1 52 53
M  V30 42 1 53 54
M  V30 43 1 55 56
M  V30 44 1 56 57
M  V30 45 1 58 59
M  V30 46 1 59 60
M  V30 47 1 61 62
M  V30 48 1 62 63
M  V30 49 1 64 65
M  V30 50 1 65 66
M  V30 51 1 67 68
M  V30 52 1 68 69
M  V30 53 1 70 71
M  V30 54 1 71 72
M  V30 55 1 73 74
M  V30 56 1 74 75
M  V30 57 1 76 77
M  V30 58 1 77 78
M  V30 59 1 79 80
M  V30 60 1 80 81
M  V30 61 1 82 83
M  V30 62 1 83 84
M  V30 63 1 85 86
M  V30 64 1 86 87
M  V30 65 1 88 89
M  V30 66 1 89 90
M  V30 67 1 91 92
M  V30 68 1 92 93
M  V30 69 1 94 95
M  V30 70 1 95 96
M  V30 71 1 97 98
M  V30 72 1 98 99
M  V30 73 1 2 94
M  V30 74 1 3 70
M  V30 75 1 4 76
M  V30 76 1 5 79
M  V30 77 1 7 82
M  V30 78 1 8 78
M  V30 79 1 9 72
M  V30 80 1 10 67
M  V30 81 1 12 85
M  V30 82 1 13 61
M  V30 83 1 14 46
M  V30 84 1 15 91
M  V30 85 1 17 58
M  V30 86 1 18 97
M  V30 87 1 19 73
M  V30 88 1 20 48
M  V30 89 1 22 55
M  V30 90 1 23 52
M  V30 91 1 24 93
M  V30 92 1 25 96
M  V30 93 1 27 84
M  V30 94 1 28 88
M  V30 95 1 29 69
M  V30 96 1 30 54
M  V30 97 1 32 57
M  V30 98 1 33 49
M  V30 99 1 34 87
M  V30 100 1 35 99
M  V30 101 1 37 64
M  V30 102 1 38 63
M  V30 103 1 39 81
M  V30 104 1 40 90
M  V30 105 1 42 75
M  V30 106 1 43 60
M  V30 107 1 44 51
M  V30 108 1 45 66
M  V30 END BOND
M  V30 END CTAB
M  END

$$$$
