
     RDKit          3D

  0  0  0  0  0  0  0  0  0  0999 V3000
M  V30 BEGIN CTAB
M  V30 COUNTS 99 108 0 0 0
M  V30 BEGIN ATOM
M  V30 1 Pd 2.1720 -2.6714 1.9376 0
M  V30 2 Pb 2.3593 -3.2972 1.1795 0
M  V30 3 Pb 1.6187 -3.3886 2.3586 0
M  V30 4 Pb 2.7440 -1.9858 1.4869 0
M  V30 5 Pb 1.9172 -2.0415 2.6737 0
M  V30 6 Pd 4.5586 2.7535 1.6500 0
M  V30 7 Pb 4.6817 3.7031 1.9317 0
M  V30 8 Pb 3.6025 2.8241 1.9473 0
M  V30 9 Pb 4.4294 1.8280 1.2933 0
M  V30 10 Pb 5.4993 2.7278 1.3069 0
M  V30 11 Pd 1.6876 5.9951 -0.2280 0
M  V30 12 Pb 0.9825 5.6475 -0.8458 0
M  V30 13 Pb 1.2787 5.4929 0.5325 0
M  V30 14 Pb 2.2247 6.3157 -1.0036 0
M  V30 15 Pb 2.4082 6.2955 0.3946 0
M  V30 16 Pd 3.0981 -2.2400 -3.4690 0
M  V30 17 Pb 4.0642 -2.2252 -3.2097 0
M  V30 18 Pb 2.1320 -2.2319 -3.7379 0
M  V30 19 Pb 3.2859 -1.5177 -4.1358 0
M  V30 20 Pb 2.9415 -2.9727 -2.8051 0
M  V30 21 Pd -4.8226 2.2612 -0.4109 0
M  V30 22 Pb -5.4838 1.9389 0.2682 0
M  V30 23 Pb -5.2410 1.7015 -1.1293 0
M  V30 24 Pb -4.1515 2.6243 -1.0551 0
M  V30 25 Pb -4.3883 2.8087 0.3042 0
M  V30 26 Pd 6.3634 1.7799 -3.1732 0
M  V30 27 Pb 5.8012 1.5081 -3.9537 0
M  V30 28 Pb 6.5574 0.8151 -2.9977 0
M  V30 29 Pb 6.1231 2.7371 -3.3346 0
M  V30 30 Pb 6.8689 2.0347 -2.3475 0
M  V30 31 Pd -4.6017 -5.7841 1.8396 0
M  V30 32 Pb -5.4420 -5.4731 1.3964 0
M  V30 33 Pb -4.8682 -5.3583 2.7007 0
M  V30 34 Pb -4.2827 -6.1219 0.9564 0
M  V30 35 Pb -3.7191 -5.9938 2.2536 0
M  V30 36 Pd -3.8400 0.9684 4.4097 0
M  V30 37 Pb -4.1172 0.0853 4.7825 0
M  V30 38 Pb -3.5871 1.8387 3.9926 0
M  V30 39 Pb -2.8936 0.8240 4.7027 0
M  V30 40 Pb -4.7525 1.0624 4.0108 0
M  V30 41 Pd -4.6822 -3.0281 -2.4134 0
M  V30 42 Pb -3.8862 -2.7763 -2.9674 0
M  V30 43 Pb -4.2943 -3.9395 -2.2718 0
M  V30 44 Pb -5.4661 -3.3027 -1.8531 0
M  V30 45 Pb -5.0995 -2.1297 -2.5740 0
M  V30 46 Ag 1.2040 -3.9483 2.6334 0
M  V30 47 Fe -0.8866 -5.0699 2.6555 0
M  V30 48 Ag -3.0398 -6.0613 2.5572 0
M  V30 49 Ag 1.4161 -2.1940 -3.9680 0
M  V30 50 Fe -0.9292 -2.4113 -3.6428 0
M  V30 51 Ag -3.2849 -2.6071 -3.3861 0
M  V30 52 Ag 0.4558 5.3553 -1.2923 0
M  V30 53 Fe -1.5824 4.1504 -1.4670 0
M  V30 54 Ag -3.6245 2.9400 -1.4828 0
M  V30 55 Ag 1.6670 -1.5875 3.2183 0
M  V30 56 Fe -0.2019 -0.4153 4.1037 0
M  V30 57 Ag -2.1684 0.6925 4.8492 0
M  V30 58 Ag -4.9926 -4.9729 3.3281 0
M  V30 59 Fe -4.7308 -2.8212 4.2898 0
M  V30 60 Ag -4.3590 -0.5886 4.9978 0
M  V30 61 Ag 2.7092 6.4021 -1.5643 0
M  V30 62 Fe 4.3577 5.0721 -2.6321 0
M  V30 63 Ag 5.8887 3.4433 -3.4266 0
M  V30 64 Ba -6.0294 -5.1918 1.0247 0
M  V30 65 Ga -6.0782 -4.3650 -0.1975 0
M  V30 66 Ba -6.0342 -3.5422 -1.4226 0
M  V30 67 Ba 4.7907 -2.1895 -3.0250 0
M  V30 68 Ga 5.7506 -1.0729 -2.9378 0
M  V30 69 Ba 6.6628 0.0841 -2.8687 0
M  V30 70 Ba 3.4570 -0.9792 -4.6303 0
M  V30 71 Ga 4.3944 0.1596 -4.5983 0
M  V30 72 Ba 5.3483 1.2813 -4.5063 0
M  V30 73 Ba 6.1938 2.7179 1.0193 0
M  V30 74 Ga 6.7274 2.4682 -0.3353 0
M  V30 75 Ba 7.2166 2.2112 -1.7053 0
M  V30 76 Ba 2.8877 2.9506 2.1506 0
M  V30 77 Ga 1.9231 3.9635 1.6722 0
M  V30 78 Ba 1.0810 5.0272 1.0856 0
M  V30 79 Ba -5.5524 1.2927 -1.6785 0
M  V30 80 Ga -5.4723 -0.0988 -2.1723 0
M  V30 81 Ba -5.4399 -1.4730 -2.7171 0
M  V30 82 Ba 4.7213 4.4343 2.0826 0
M  V30 83 Ga 3.8847 5.5103 1.5285 0
M  V30 84 Ba 2.9583 6.4499 0.8776 0
M  V30 85 Ba 2.4600 -3.7711 0.6060 0
M  V30 86 Ga 2.6623 -3.6394 -0.8504 0
M  V30 87 Ba 2.8650 -3.5312 -2.3087 0
M  V30 88 Ba -4.0354 -6.3033 0.2741 0
M  V30 89 Ga -4.0140 -5.5049 -0.9648 0
M  V30 90 Ba -4.0345 -4.6339 -2.1539 0
M  V30 91 Ba -4.0524 3.2005 0.8480 0
M  V30 92 Ga -3.7230 2.8811 2.2477 0
M  V30 93 Ba -3.4336 2.4766 3.6341 0
M  V30 94 Ba 3.1923 -1.5321 1.0922 0
M  V30 95 Ga 3.7474 -0.1653 1.0974 0
M  V30 96 Ba 4.3824 1.1588 0.9575 0
M  V30 97 Ba -5.9532 1.7372 0.8189 0
M  V30 98 Ga -5.7246 1.4145 2.2414 0
M  V30 99 Ba -5.4091 1.1038 3.6498 0
M  V30 END ATOM
M  V30 BEGIN BOND
M  V30 1 1 1 2
M  V30 2 1 1 3
M  V30 3 1 1 4
M  V30 4 1 1 5
M  V30 5 1 6 7
M  V30 6 1 6 8
M  V30 7 1 6 9
M  V30 8 1 6 10
M  V30 9 1 11 12
M  V30 10 1 11 13
M  V30 11 1 11 14
M  V30 12 1 11 15
M  V30 13 1 16 17
M  V30 14 1 16 18
M  V30 15 1 16 19
M  V30 16 1 16 20
M  V30 17 1 21 22
M  V30 18 1 21 23
M  V30 19 1 21 24
M  V30 20 1 21 25
M  V30 21 1 26 27
M  V30 22 1 26 28
M  V30 23 1 26 29
M  V30 24 1 26 30
M  V30 25 1 31 32
M  V30 26 1 31 33
M  V30 27 1 31 34
M  V30 28 1 31 35
M  V30 29 1 36 37
M  V30 30 1 36 38
M  V30 31 1 36 39
M  V30 32 1 36 40
M  V30 33 1 41 42
M  V30 34 1 41 43
M  V30 35 1 41 44
M  V30 36 1 41 45
M  V30 37 1 46 47
M  V30 38 1 47 48
M  V30 39 1 49 50
M  V30 40 1 50 51
M  V30 41 1 52 53
M  V30 42 1 53 54
M  V30 43 1 55 56
M  V30 44 1 56 57
M  V30 45 1 58 59
M  V30 46 1 59 60
M  V30 47 1 61 62
M  V30 48 1 62 63
M  V30 49 1 64 65
M  V30 50 1 65 66
M  V30 51 1 67 68
M  V30 52 1 68 69
M  V30 53 1 70 71
M  V30 54 1 71 72
M  V30 55 1 73 74
M  V30 56 1 74 75
M  V30 57 1 76 77
M  V30 58 1 77 78
M  V30 59 1 79 80
M  V30 60 1 80 81
M  V30 61 1 82 83
M  V30 62 1 83 84
M  V30 63 1 85 86
M  V30 64 1 86 87
M  V30 65 1 88 89
M  V30 66 1 89 90
M  V30 67 1 91 92
M  V30 68 1 92 93
M  V30 69 1 94 95
M  V30 70 1 95 96
M  V30 71 1 97 98
M  V30 72 1 98 99
M  V30 73 1 2 85
M  V30 74 1 3 46
M  V30 75 1 4 94
M  V30 76 1 5 55
M  V30 77 1 7 82
M  V30 78 1 8 76
M  V30 79 1 9 96
M  V30 80 1 10 73
M  V30 81 1 12 52
M  V30 82 1 13 78
M  V30 83 1 14 61
M  V30 84 1 15 84
M  V30 85 1 17 67
M  V30 86 1 18 49
M  V30 87 1 19 70
M  V30 88 1 20 87
M  V30 89 1 22 97
M  V30 90 1 23 79
M  V30 91 1 24 54
M  V30 92 1 25 91
M  V30 93 1 27 72
M  V30 94 1 28 69
M  V30 95 1 29 63
M  V30 96 1 30 75
M  V30 97 1 32 64
M  V30 98 1 33 58
M  V30 99 1 34 88
M  V30 100 1 35 48
M  V30 101 1 37 60
M  V30 102 1 38 93
M  V30 103 1 39 57
M  V30 104 1 40 99
M  V30 105 1 42 51
M  V30 106 1 43 90
M  V30 107 1 44 66
M  V30 108 1 45 81
M  V30 END BOND
M  V30 END CTAB
M  END

$$$$
