
     RDKit          3D

  0  0  0  0  0  0  0  0  0  0999 V3000
M  V30 BEGIN CTAB
M  V30 COUNTS 99 108 0 0 0
M  V30 BEGIN ATOM
M  V30 1 Pd 3.4636 1.1159 3.7051 0
M  V30 2 Pb 3.8960 0.2340 3.5134 0
M  V30 3 Pb 2.8972 0.6383 4.3812 0
M  V30 4 Pb 4.1101 1.6049 3.1124 0
M  V30 5 Pb 2.9980 1.9877 3.8690 0
M  V30 6 Pd -3.8740 -1.6468 2.5212 0
M  V30 7 Pb -3.1268 -1.7191 1.8614 0
M  V30 8 Pb -4.6118 -1.5892 3.1942 0
M  V30 9 Pb -4.1088 -0.7423 2.1567 0
M  V30 10 Pb -3.6103 -2.5223 2.9324 0
M  V30 11 Pd -1.7296 -3.5153 -4.9359 0
M  V30 12 Pb -0.8247 -3.7791 -5.2673 0
M  V30 13 Pb -2.6019 -3.2021 -4.5584 0
M  V30 14 Pb -1.8538 -2.8893 -5.7048 0
M  V30 15 Pb -1.5370 -4.0815 -4.1327 0
M  V30 16 Pd -0.5297 3.5353 -5.7734 0
M  V30 17 Pb -0.8770 2.8500 -6.4113 0
M  V30 18 Pb -0.1477 4.1257 -5.0595 0
M  V30 19 Pb -1.4631 3.6864 -5.4521 0
M  V30 20 Pb 0.4101 3.3181 -6.0261 0
M  V30 21 Pd -2.6871 0.7850 -2.1487 0
M  V30 22 Pb -2.2407 0.0830 -1.5952 0
M  V30 23 Pb -3.3225 0.0902 -2.4906 0
M  V30 24 Pb -3.1231 1.4965 -2.7009 0
M  V30 25 Pb -2.0290 1.4644 -1.8213 0
M  V30 26 Pd 5.2715 2.6896 -1.6283 0
M  V30 27 Pb 4.5813 3.4159 -1.6387 0
M  V30 28 Pb 5.9012 1.9147 -1.6599 0
M  V30 29 Pb 5.4325 2.7928 -0.6452 0
M  V30 30 Pb 5.1002 2.5898 -2.6066 0
M  V30 31 Pd 4.3736 -4.4309 -1.3815 0
M  V30 32 Pb 4.5241 -4.2468 -0.4110 0
M  V30 33 Pb 5.1977 -3.8981 -1.5624 0
M  V30 34 Pb 3.4832 -4.8580 -1.2174 0
M  V30 35 Pb 4.1820 -4.5366 -2.3562 0
M  V30 36 Pd -1.4601 3.2564 2.5773 0
M  V30 37 Pb -1.0992 3.2916 1.6456 0
M  V30 38 Pb -1.8131 3.2218 3.5099 0
M  V30 39 Pb -2.3214 2.8827 2.2224 0
M  V30 40 Pb -0.5937 3.5945 2.9496 0
M  V30 41 Pd -2.8894 -1.8807 7.0821 0
M  V30 42 Pb -3.8646 -1.8716 6.8746 0
M  V30 43 Pb -1.8953 -1.8213 7.1642 0
M  V30 44 Pb -2.9521 -0.9288 7.3632 0
M  V30 45 Pb -2.8219 -2.7659 6.6261 0
M  V30 46 Ag 4.1669 -0.4532 3.3790 0
M  V30 47 Fe 4.4397 -2.2730 1.8771 0
M  V30 48 Ag 4.6588 -4.0298 0.2936 0
M  V30 49 Ag 0.2095 4.4864 -4.5042 0
M  V30 50 Fe 2.0856 4.3285 -3.0515 0
M  V30 51 Ag 4.0231 3.9105 -1.7375 0
M  V30 52 Ag -1.2880 -4.4747 -3.5425 0
M  V30 53 Fe 0.6683 -4.8974 -2.2604 0
M  V30 54 Ag 2.7760 -5.1093 -1.1822 0
M  V30 55 Ag -0.1174 -3.9715 -5.4214 0
M  V30 56 Fe 1.9916 -4.3208 -4.3902 0
M  V30 57 Ag 3.9416 -4.5870 -3.0636 0
M  V30 58 Ag 1.1314 3.1440 -6.1111 0
M  V30 59 Fe 3.1131 2.8110 -4.8519 0
M  V30 60 Ag 4.9125 2.5495 -3.3295 0
M  V30 61 Ag -1.9164 -2.3628 -6.2339 0
M  V30 62 Fe -1.5729 -0.0555 -6.6708 0
M  V30 63 Ag -1.1293 2.2716 -6.8138 0
M  V30 64 Ag -2.0479 3.1608 4.2170 0
M  V30 65 Fe -2.5601 1.6364 5.9571 0
M  V30 66 Ag -2.9763 -0.1869 7.4110 0
M  V30 67 Ag 2.5499 0.2460 4.9226 0
M  V30 68 Fe 0.6913 -0.7331 6.0348 0
M  V30 69 Ag -1.1527 -1.7193 7.1651 0
M  V30 70 Ag 6.3117 1.2906 -1.7113 0
M  V30 71 Fe 6.1927 -1.0792 -1.7063 0
M  V30 72 Ag 5.7577 -3.4111 -1.6538 0
M  V30 73 Ba -2.5645 -1.7733 1.3690 0
M  V30 74 Ga -2.2330 -1.1115 0.0944 0
M  V30 75 Ba -1.9091 -0.4446 -1.1795 0
M  V30 76 Ba -1.5258 1.9728 -1.5923 0
M  V30 77 Ga -1.1863 2.6403 -0.3209 0
M  V30 78 Ba -0.8363 3.3151 0.9438 0
M  V30 79 Ba -2.1615 3.7304 -5.1859 0
M  V30 80 Ga -2.8329 2.9183 -4.1545 0
M  V30 81 Ba -3.4146 2.0529 -3.1119 0
M  V30 82 Ba -3.4132 -3.1495 3.2987 0
M  V30 83 Ga -3.0913 -3.3472 4.7256 0
M  V30 84 Ba -2.8006 -3.3606 6.1723 0
M  V30 85 Ba -5.1275 -1.5836 3.7390 0
M  V30 86 Ga -4.9420 -1.7020 5.1950 0
M  V30 87 Ba -4.5625 -1.8277 6.6120 0
M  V30 88 Ba -4.2742 -0.0554 1.8961 0
M  V30 89 Ga -3.6129 1.2679 1.9272 0
M  V30 90 Ba -2.9638 2.5974 1.9502 0
M  V30 91 Ba 4.6281 2.0122 2.7458 0
M  V30 92 Ga 5.0557 2.4072 1.3868 0
M  V30 93 Ba 5.5828 2.8742 0.0866 0
M  V30 94 Ba 2.6632 2.6554 3.9568 0
M  V30 95 Ga 1.3506 3.2375 3.6074 0
M  V30 96 Ba 0.0439 3.8371 3.2659 0
M  V30 97 Ba -3.2388 -2.9222 -4.2757 0
M  V30 98 Ga -3.5332 -1.6954 -3.5079 0
M  V30 99 Ba -3.7740 -0.4557 -2.7419 0
M  V30 END ATOM
M  V30 BEGIN BOND
M  V30 1 1 1 2
M  V30 2 1 1 3
M  V30 3 1 1 4
M  V30 4 1 1 5
M  V30 5 1 6 7
M  V30 6 1 6 8
M  V30 7 1 6 9
M  V30 8 1 6 10
M  V30 9 1 11 12
M  V30 10 1 11 13
M  V30 11 1 11 14
M  V30 12 1 11 15
M  V30 13 1 16 17
M  V30 14 1 16 18
M  V30 15 1 16 19
M  V30 16 1 16 20
M  V30 17 1 21 22
M  V30 18 1 21 23
M  V30 19 1 21 24
M  V30 20 1 21 25
M  V30 21 1 26 27
M  V30 22 1 26 28
M  V30 23 1 26 29
M  V30 24 1 26 30
M  V30 25 1 31 32
M  V30 26 1 31 33
M  V30 27 1 31 34
M  V30 28 1 31 35
M  V30 29 1 36 37
M  V30 30 1 36 38
M  V30 31 1 36 39
M  V30 32 1 36 40
M  V30 33 1 41 42
M  V30 34 1 41 43
M  V30 35 1 41 44
M  V30 36 1 41 45
M  V30 37 1 46 47
M  V30 38 1 47 48
M  V30 39 1 49 50
M  V30 40 1 50 51
M  V30 41 1 52 53
M  V30 42 1 53 54
M  V30 43 1 55 56
M  V30 44 1 56 57
M  V30 45 1 58 59
M  V30 46 1 59 60
M  V30 47 1 61 62
M  V30 48 1 62 63
M  V30 49 1 64 65
M  V30 50 1 65 66
M  V30 51 1 67 68
M  V30 52 1 68 69
M  V30 53 1 70 71
M  V30 54 1 71 72
M  V30 55 1 73 74
M  V30 56 1 74 75
M  V30 57 1 76 77
M  V30 58 1 77 78
M  V30 59 1 79 80
M  V30 60 1 80 81
M  V30 61 1 82 83
M  V30 62 1 83 84
M  V30 63 1 85 86
M  V30 64 1 86 87
M  V30 65 1 88 89
M  V30 66 1 89 90
M  V30 67 1 91 92
M  V30 68 1 92 93
M  V30 69 1 94 95
M  V30 70 1 95 96
M  V30 71 1 97 98
M  V30 72 1 98 99
M  V30 73 1 2 46
M  V30 74 1 3 67
M  V30 75 1 4 91
M  V30 76 1 5 94
M  V30 77 1 7 73
M  V30 78 1 8 85
M  V30 79 1 9 88
M  V30 80 1 10 82
M  V30 81 1 12 55
M  V30 82 1 13 97
M  V30 83 1 14 61
M  V30 84 1 15 52
M  V30 85 1 17 63
M  V30 86 1 18 49
M  V30 87 1 19 79
M  V30 88 1 20 58
M  V30 89 1 22 75
M  V30 90 1 23 99
M  V30 91 1 24 81
M  V30 92 1 25 76
M  V30 93 1 27 51
M  V30 94 1 28 70
M  V30 95 1 29 93
M  V30 96 1 30 60
M  V30 97 1 32 48
M  V30 98 1 33 72
M  V30 99 1 34 54
M  V30 100 1 35 57
M  V30 101 1 37 78
M  V30 102 1 38 64
M  V30 103 1 39 90
M  V30 104 1 40 96
M  V30 105 1 42 87
M  V30 106 1 43 69
M  V30 107 1 44 66
M  V30 108 1 45 84
M  V30 END BOND
M  V30 END CTAB
M  END

$$$$
