
     RDKit          3D

  0  0  0  0  0  0  0  0  0  0999 V3000
M  V30 BEGIN CTAB
M  V30 COUNTS 99 108 0 0 0
M  V30 BEGIN ATOM
M  V30 1 Pd 8.0172 -0.3108 0.0747 0
M  V30 2 Pb 7.9920 -1.0456 -0.5974 0
M  V30 3 Pb 7.7820 0.4511 0.6685 0
M  V30 4 Pb 8.1515 0.3363 -0.6683 0
M  V30 5 Pb 7.7086 -0.9051 0.8121 0
M  V30 6 Pd -8.0277 -3.6647 -1.1804 0
M  V30 7 Pb -7.7997 -2.7267 -0.9203 0
M  V30 8 Pb -8.6466 -3.7286 -0.3965 0
M  V30 9 Pb -7.1715 -3.7456 -1.6923 0
M  V30 10 Pb -8.1742 -4.6390 -1.3346 0
M  V30 11 Pd 2.7285 3.6285 -2.4553 0
M  V30 12 Pb 3.6994 3.4955 -2.6443 0
M  V30 13 Pb 1.7559 3.8056 -2.2639 0
M  V30 14 Pb 2.5424 3.0976 -3.2893 0
M  V30 15 Pb 2.9819 4.1586 -1.6372 0
M  V30 16 Pd 1.3020 -1.4694 3.3483 0
M  V30 17 Pb 1.2886 -2.2214 2.6868 0
M  V30 18 Pb 1.2786 -0.6152 3.8769 0
M  V30 19 Pb 0.3153 -1.5584 3.4717 0
M  V30 20 Pb 2.3023 -1.5007 3.3156 0
M  V30 21 Pd 0.1847 5.4369 1.4704 0
M  V30 22 Pb 1.1613 5.6252 1.4869 0
M  V30 23 Pb -0.7409 5.0960 1.3229 0
M  V30 24 Pb 0.2506 5.6623 0.5006 0
M  V30 25 Pb 0.2292 5.0088 2.3772 0
M  V30 26 Pd -4.5993 -6.3420 2.7706 0
M  V30 27 Pb -5.4393 -6.2145 3.2995 0
M  V30 28 Pb -5.0525 -7.0894 2.2906 0
M  V30 29 Pb -3.9751 -6.2626 1.9922 0
M  V30 30 Pb -4.2135 -5.5057 3.1592 0
M  V30 31 Pd -2.8292 2.1727 -0.4405 0
M  V30 32 Pb -2.6177 2.2650 0.5352 0
M  V30 33 Pb -3.6687 1.6733 -0.2233 0
M  V30 34 Pb -2.0721 2.7769 -0.7214 0
M  V30 35 Pb -2.9205 1.8936 -1.3902 0
M  V30 36 Pd 2.1646 -1.5769 -3.8505 0
M  V30 37 Pb 1.2068 -1.3174 -3.9579 0
M  V30 38 Pb 2.3652 -0.7747 -4.4150 0
M  V30 39 Pb 1.9385 -2.2832 -3.1765 0
M  V30 40 Pb 3.1275 -1.8448 -3.7718 0
M  V30 41 Pd 1.2531 2.0765 0.3705 0
M  V30 42 Pb 0.8920 1.7895 1.2519 0
M  V30 43 Pb 1.4856 2.5682 -0.4664 0
M  V30 44 Pb 0.2952 2.0681 0.0833 0
M  V30 45 Pb 2.1817 2.1816 0.7297 0
M  V30 46 Ag 7.8052 -1.5106 -1.1512 0
M  V30 47 Fe 5.8896 -1.9074 -2.4977 0
M  V30 48 Ag 3.8382 -2.0765 -3.6834 0
M  V30 49 Ag 7.4188 0.9835 1.0414 0
M  V30 50 Fe 5.1740 1.7469 1.1297 0
M  V30 51 Ag 2.8678 2.2960 1.0143 0
M  V30 52 Ag -7.5968 -2.0536 -0.6589 0
M  V30 53 Fe -5.9531 -0.3581 -0.3987 0
M  V30 54 Ag -4.3436 1.3648 -0.1079 0
M  V30 55 Ag 1.2786 -2.7091 2.1146 0
M  V30 56 Fe 1.5140 -2.8638 -0.2464 0
M  V30 57 Ag 1.7927 -2.7505 -2.6051 0
M  V30 58 Ag -6.4577 -3.9259 -1.8459 0
M  V30 59 Fe -4.8057 -5.0055 -0.5175 0
M  V30 60 Ag -3.7238 -6.0839 1.3062 0
M  V30 61 Ag -8.8914 -3.8886 0.2965 0
M  V30 62 Fe -7.7993 -4.9381 2.1309 0
M  V30 63 Ag -6.1455 -6.0126 3.4611 0
M  V30 64 Ag 1.1960 0.0672 4.1903 0
M  V30 65 Fe 0.7637 2.3614 3.7193 0
M  V30 66 Ag 0.3274 4.5882 2.9961 0
M  V30 67 Ag -8.1606 -5.3827 -1.3014 0
M  V30 68 Fe -6.9581 -6.8460 0.1132 0
M  V30 69 Ag -5.4701 -7.4987 1.8300 0
M  V30 70 Ag 7.3654 -1.2498 1.3789 0
M  V30 71 Fe 5.2227 -1.4794 2.3771 0
M  V30 72 Ag 3.0419 -1.6369 3.3045 0
M  V30 73 Ag -2.8653 1.5688 -2.0571 0
M  V30 74 Fe -1.2768 0.2377 -3.2064 0
M  V30 75 Ag 0.5125 -1.0590 -4.0641 0
M  V30 76 Ag -0.4063 -1.6937 3.6183 0
M  V30 77 Fe -2.2002 -3.2454 3.5140 0
M  V30 78 Ag -3.9562 -4.8381 3.3838 0
M  V30 79 Ag 8.0925 0.8469 -1.2060 0
M  V30 80 Fe 6.3746 2.2004 -2.1172 0
M  V30 81 Ag 4.4287 3.3858 -2.7689 0
M  V30 82 Ba -1.3345 4.7061 1.0950 0
M  V30 83 Ga -1.0893 3.3896 0.4932 0
M  V30 84 Ba -0.4405 2.1719 -0.0103 0
M  V30 85 Ba -2.3817 2.2064 1.2480 0
M  V30 86 Ga -1.0016 1.9433 1.6970 0
M  V30 87 Ba 0.4473 1.7158 1.8458 0
M  V30 88 Ba 1.0534 4.0275 -2.0910 0
M  V30 89 Ga -0.2394 3.5593 -1.5313 0
M  V30 90 Ba -1.6003 3.3030 -0.9973 0
M  V30 91 Ba 0.4283 5.6588 -0.2254 0
M  V30 92 Ga 1.0129 4.4359 -0.8008 0
M  V30 93 Ba 1.5274 3.0718 -1.0179 0
M  V30 94 Ba 2.5016 2.7097 -3.9376 0
M  V30 95 Ga 2.4643 1.2907 -4.3623 0
M  V30 96 Ba 2.4232 -0.1265 -4.7924 0
M  V30 97 Ba 3.2124 4.5538 -1.0337 0
M  V30 98 Ga 2.5960 5.1375 0.1769 0
M  V30 99 Ba 1.8931 5.6868 1.3555 0
M  V30 END ATOM
M  V30 BEGIN BOND
M  V30 1 1 1 2
M  V30 2 1 1 3
M  V30 3 1 1 4
M  V30 4 1 1 5
M  V30 5 1 6 7
M  V30 6 1 6 8
M  V30 7 1 6 9
M  V30 8 1 6 10
M  V30 9 1 11 12
M  V30 10 1 11 13
M  V30 11 1 11 14
M  V30 12 1 11 15
M  V30 13 1 16 17
M  V30 14 1 16 18
M  V30 15 1 16 19
M  V30 16 1 16 20
M  V30 17 1 21 22
M  V30 18 1 21 23
M  V30 19 1 21 24
M  V30 20 1 21 25
M  V30 21 1 26 27
M  V30 22 1 26 28
M  V30 23 1 26 29
M  V30 24 1 26 30
M  V30 25 1 31 32
M  V30 26 1 31 33
M  V30 27 1 31 34
M  V30 28 1 31 35
M  V30 29 1 36 37
M  V30 30 1 36 38
M  V30 31 1 36 39
M  V30 32 1 36 40
M  V30 33 1 41 42
M  V30 34 1 41 43
M  V30 35 1 41 44
M  V30 36 1 41 45
M  V30 37 1 46 47
M  V30 38 1 47 48
M  V30 39 1 49 50
M  V30 40 1 50 51
M  V30 41 1 52 53
M  V30 42 1 53 54
M  V30 43 1 55 56
M  V30 44 1 56 57
M  V30 45 1 58 59
M  V30 46 1 59 60
M  V30 47 1 61 62
M  V30 48 1 62 63
M  V30 49 1 64 65
M  V30 50 1 65 66
M  V30 51 1 67 68
M  V30 52 1 68 69
M  V30 53 1 70 71
M  V30 54 1 71 72
M  V30 55 1 73 74
M  V30 56 1 74 75
M  V30 57 1 76 77
M  V30 58 1 77 78
M  V30 59 1 79 80
M  V30 60 1 80 81
M  V30 61 1 82 83
M  V30 62 1 83 84
M  V30 63 1 85 86
M  V30 64 1 86 87
M  V30 65 1 88 89
M  V30 66 1 89 90
M  V30 67 1 91 92
M  V30 68 1 92 93
M  V30 69 1 94 95
M  V30 70 1 95 96
M  V30 71 1 97 98
M  V30 72 1 98 99
M  V30 73 1 2 46
M  V30 74 1 3 49
M  V30 75 1 4 79
M  V30 76 1 5 70
M  V30 77 1 7 52
M  V30 78 1 8 61
M  V30 79 1 9 58
M  V30 80 1 10 67
M  V30 81 1 12 81
M  V30 82 1 13 88
M  V30 83 1 14 94
M  V30 84 1 15 97
M  V30 85 1 17 55
M  V30 86 1 18 64
M  V30 87 1 19 76
M  V30 88 1 20 72
M  V30 89 1 22 99
M  V30 90 1 23 82
M  V30 91 1 24 91
M  V30 92 1 25 66
M  V30 93 1 27 63
M  V30 94 1 28 69
M  V30 95 1 29 60
M  V30 96 1 30 78
M  V30 97 1 32 85
M  V30 98 1 33 54
M  V30 99 1 34 90
M  V30 100 1 35 73
M  V30 101 1 37 75
M  V30 102 1 38 96
M  V30 103 1 39 57
M  V30 104 1 40 48
M  V30 105 1 42 87
M  V30 106 1 43 93
M  V30 107 1 44 84
M  V30 108 1 45 51
M  V30 END BOND
M  V30 END CTAB
M  END

$$$$
