
     RDKit          3D

  0  0  0  0  0  0  0  0  0  0999 V3000
M  V30 BEGIN CTAB
M  V30 COUNTS 99 108 0 0 0
M  V30 BEGIN ATOM
M  V30 1 Pd -3.5170 -4.4445 -2.2448 0
M  V30 2 Pb -4.1667 -3.6914 -2.3730 0
M  V30 3 Pb -2.8709 -5.1948 -2.1092 0
M  V30 4 Pb -4.2624 -5.0891 -2.0612 0
M  V30 5 Pb -2.7519 -3.8274 -2.4241 0
M  V30 6 Pd -3.6508 -7.6133 1.5313 0
M  V30 7 Pb -2.9447 -7.4104 2.2076 0
M  V30 8 Pb -4.3586 -7.6568 0.8277 0
M  V30 9 Pb -2.9613 -7.6913 0.8146 0
M  V30 10 Pb -4.3392 -7.4618 2.2378 0
M  V30 11 Pd 1.8127 4.4714 2.6684 0
M  V30 12 Pb 1.3543 5.2467 2.2297 0
M  V30 13 Pb 2.1807 3.6368 3.0712 0
M  V30 14 Pb 2.7513 4.8316 2.6354 0
M  V30 15 Pb 0.8918 4.0952 2.7532 0
M  V30 16 Pd 6.7005 6.0423 -0.2402 0
M  V30 17 Pb 7.0811 6.3773 -1.0953 0
M  V30 18 Pb 5.9982 6.7399 -0.3099 0
M  V30 19 Pb 7.2555 5.1944 -0.3351 0
M  V30 20 Pb 6.3084 5.7711 0.6423 0
M  V30 21 Pd -4.3565 0.5914 -0.1469 0
M  V30 22 Pb -3.8410 1.0647 -0.8660 0
M  V30 23 Pb -4.9229 0.1587 0.5576 0
M  V30 24 Pb -3.9157 1.1436 0.5582 0
M  V30 25 Pb -4.7851 0.0118 -0.8434 0
M  V30 26 Pd -3.8767 -3.3146 3.5634 0
M  V30 27 Pb -3.1131 -3.9339 3.7548 0
M  V30 28 Pb -3.2750 -2.5965 3.2186 0
M  V30 29 Pb -4.5003 -4.0380 3.8564 0
M  V30 30 Pb -4.6427 -2.7160 3.3363 0
M  V30 31 Pd -0.1595 4.5106 -1.9761 0
M  V30 32 Pb -0.9292 3.8713 -2.0742 0
M  V30 33 Pb 0.2990 4.0003 -2.7095 0
M  V30 34 Pb -0.5268 5.0305 -1.2040 0
M  V30 35 Pb 0.5674 5.1915 -1.9128 0
M  V30 36 Pd 0.8804 -2.0408 0.4611 0
M  V30 37 Pb 1.7663 -2.2236 0.0410 0
M  V30 38 Pb 1.3588 -1.7859 1.2972 0
M  V30 39 Pb 0.4229 -2.1819 -0.4191 0
M  V30 40 Pb 0.0333 -1.7360 0.8949 0
M  V30 41 Pd 6.2800 1.5718 -3.5002 0
M  V30 42 Pb 6.9648 1.8703 -2.8086 0
M  V30 43 Pb 6.5971 2.2851 -4.1152 0
M  V30 44 Pb 5.4546 1.4680 -4.0531 0
M  V30 45 Pb 6.0000 0.7867 -2.9483 0
M  V30 46 Ag 2.4543 -2.2716 -0.2474 0
M  V30 47 Fe 4.1490 -1.0953 -1.4213 0
M  V30 48 Ag 5.7853 0.1602 -2.5964 0
M  V30 49 Ag 0.6551 3.5872 -3.2307 0
M  V30 50 Fe 2.6588 2.5006 -3.9092 0
M  V30 51 Ag 4.7728 1.5109 -4.3623 0
M  V30 52 Ag 0.1908 3.8421 2.8224 0
M  V30 53 Fe -1.6902 2.6864 1.9521 0
M  V30 54 Ag -3.5833 1.5353 1.1022 0
M  V30 55 Ag 7.3113 6.5030 -1.7862 0
M  V30 56 Fe 7.3093 5.0244 -3.6106 0
M  V30 57 Ag 6.8552 2.8838 -4.4638 0
M  V30 58 Ag 5.3804 7.1201 -0.4678 0
M  V30 59 Fe 3.1726 6.5709 -1.1314 0
M  V30 60 Ag 1.0470 5.7534 -1.7894 0
M  V30 61 Ag 2.3907 2.9629 3.3142 0
M  V30 62 Fe 2.1687 0.6673 2.7705 0
M  V30 63 Ag 1.7109 -1.4799 1.8792 0
M  V30 64 Ba 3.4813 5.0146 2.7112 0
M  V30 65 Ga 4.7129 5.3267 1.9501 0
M  V30 66 Ba 6.0166 5.6514 1.3264 0
M  V30 67 Ba -4.8230 -7.2722 2.7755 0
M  V30 68 Ga -4.9496 -5.9725 3.4543 0
M  V30 69 Ba -4.9417 -4.6175 4.0292 0
M  V30 70 Ba -2.4088 -5.7703 -1.9796 0
M  V30 71 Ga -2.3860 -6.7608 -0.8905 0
M  V30 72 Ba -2.4715 -7.6877 0.2501 0
M  V30 73 Ba 7.6401 4.5417 -0.4697 0
M  V30 74 Ga 7.5148 3.3526 -1.3773 0
M  V30 75 Ba 7.4342 2.1437 -2.2635 0
M  V30 76 Ba -4.7835 -5.6101 -1.9091 0
M  V30 77 Ga -4.8760 -6.6242 -0.8399 0
M  V30 78 Ba -4.8605 -7.5917 0.2752 0
M  V30 79 Ba -5.3741 -0.1415 1.0792 0
M  V30 80 Ga -5.2854 -1.1962 2.1071 0
M  V30 81 Ba -5.1937 -2.2517 3.1340 0
M  V30 82 Ba -2.1648 -3.3851 -2.5689 0
M  V30 83 Ga -1.0371 -2.8213 -1.8014 0
M  V30 84 Ba 0.1182 -2.2218 -1.1056 0
M  V30 85 Ba -2.4502 -7.1494 2.7057 0
M  V30 86 Ga -2.4456 -5.8159 3.3368 0
M  V30 87 Ba -2.5819 -4.4507 3.8797 0
M  V30 88 Ba 0.8642 5.7247 1.9139 0
M  V30 89 Ga 0.0890 5.6525 0.6534 0
M  V30 90 Ba -0.6372 5.5044 -0.6295 0
M  V30 91 Ba -2.8919 -2.0224 2.9289 0
M  V30 92 Ga -1.7058 -1.7853 2.0867 0
M  V30 93 Ba -0.5464 -1.4223 1.2521 0
M  V30 94 Ba -3.5113 1.4129 -1.4469 0
M  V30 95 Ga -2.4678 2.4149 -1.7605 0
M  V30 96 Ba -1.4750 3.3872 -2.2699 0
M  V30 97 Ba -4.6552 -3.1280 -2.4761 0
M  V30 98 Ga -4.8694 -1.7788 -1.9106 0
M  V30 99 Ba -5.1076 -0.4260 -1.3635 0
M  V30 END ATOM
M  V30 BEGIN BOND
M  V30 1 1 1 2
M  V30 2 1 1 3
M  V30 3 1 1 4
M  V30 4 1 1 5
M  V30 5 1 6 7
M  V30 6 1 6 8
M  V30 7 1 6 9
M  V30 8 1 6 10
M  V30 9 1 11 12
M  V30 10 1 11 13
M  V30 11 1 11 14
M  V30 12 1 11 15
M  V30 13 1 16 17
M  V30 14 1 16 18
M  V30 15 1 16 19
M  V30 16 1 16 20
M  V30 17 1 21 22
M  V30 18 1 21 23
M  V30 19 1 21 24
M  V30 20 1 21 25
M  V30 21 1 26 27
M  V30 22 1 26 28
M  V30 23 1 26 29
M  V30 24 1 26 30
M  V30 25 1 31 32
M  V30 26 1 31 33
M  V30 27 1 31 34
M  V30 28 1 31 35
M  V30 29 1 36 37
M  V30 30 1 36 38
M  V30 31 1 36 39
M  V30 32 1 36 40
M  V30 33 1 41 42
M  V30 34 1 41 43
M  V30 35 1 41 44
M  V30 36 1 41 45
M  V30 37 1 46 47
M  V30 38 1 47 48
M  V30 39 1 49 50
M  V30 40 1 50 51
M  V30 41 1 52 53
M  V30 42 1 53 54
M  V30 43 1 55 56
M  V30 44 1 56 57
M  V30 45 1 58 59
M  V30 46 1 59 60
M  V30 47 1 61 62
M  V30 48 1 62 63
M  V30 49 1 64 65
M  V30 50 1 65 66
M  V30 51 1 67 68
M  V30 52 1 68 69
M  V30 53 1 70 71
M  V30 54 1 71 72
M  V30 55 1 73 74
M  V30 56 1 74 75
M  V30 57 1 76 77
M  V30 58 1 77 78
M  V30 59 1 79 80
M  V30 60 1 80 81
M  V30 61 1 82 83
M  V30 62 1 83 84
M  V30 63 1 85 86
M  V30 64 1 86 87
M  V30 65 1 88 89
M  V30 66 1 89 90
M  V30 67 1 91 92
M  V30 68 1 92 93
M  V30 69 1 94 95
M  V30 70 1 95 96
M  V30 71 1 97 98
M  V30 72 1 98 99
M  V30 73 1 2 97
M  V30 74 1 3 70
M  V30 75 1 4 76
M  V30 76 1 5 82
M  V30 77 1 7 85
M  V30 78 1 8 78
M  V30 79 1 9 72
M  V30 80 1 10 67
M  V30 81 1 12 88
M  V30 82 1 13 61
M  V30 83 1 14 64
M  V30 84 1 15 52
M  V30 85 1 17 55
M  V30 86 1 18 58
M  V30 87 1 19 73
M  V30 88 1 20 66
M  V30 89 1 22 94
M  V30 90 1 23 79
M  V30 91 1 24 54
M  V30 92 1 25 99
M  V30 93 1 27 87
M  V30 94 1 28 91
M  V30 95 1 29 69
M  V30 96 1 30 81
M  V30 97 1 32 96
M  V30 98 1 33 49
M  V30 99 1 34 90
M  V30 100 1 35 60
M  V30 101 1 37 46
M  V30 102 1 38 63
M  V30 103 1 39 84
M  V30 104 1 40 93
M  V30 105 1 42 75
M  V30 106 1 43 57
M  V30 107 1 44 51
M  V30 108 1 45 48
M  V30 END BOND
M  V30 END CTAB
M  END

$$$$
