
     RDKit          3D

  0  0  0  0  0  0  0  0  0  0999 V3000
M  V30 BEGIN CTAB
M  V30 COUNTS 99 108 0 0 0
M  V30 BEGIN ATOM
M  V30 1 Pd 4.6763 5.2620 1.0808 0
M  V30 2 Pb 4.3687 5.2060 0.1355 0
M  V30 3 Pb 4.7642 5.0948 2.0539 0
M  V30 4 Pb 4.0690 6.0456 1.1657 0
M  V30 5 Pb 5.1458 4.3930 0.9972 0
M  V30 6 Pd 3.7090 0.7199 1.3363 0
M  V30 7 Pb 3.5314 0.0245 0.6399 0
M  V30 8 Pb 2.7666 0.5772 1.6497 0
M  V30 9 Pb 4.5709 0.8890 0.8520 0
M  V30 10 Pb 3.9139 1.3845 2.0704 0
M  V30 11 Pd -1.2336 1.4662 -1.2009 0
M  V30 12 Pb -1.7699 1.9898 -1.8675 0
M  V30 13 Pb -2.0088 0.8302 -1.1302 0
M  V30 14 Pb -0.7634 1.0367 -0.4142 0
M  V30 15 Pb -0.4601 2.0833 -1.3662 0
M  V30 16 Pd -2.6934 -1.2077 1.2403 0
M  V30 17 Pb -3.6021 -1.3617 0.8344 0
M  V30 18 Pb -3.0472 -0.3067 1.4934 0
M  V30 19 Pb -1.8276 -1.1144 1.7367 0
M  V30 20 Pb -2.3574 -2.1257 0.9764 0
M  V30 21 Pd 2.1953 1.9267 -1.1749 0
M  V30 22 Pb 1.4877 1.9815 -1.8789 0
M  V30 23 Pb 1.5683 2.0779 -0.4000 0
M  V30 24 Pb 2.9375 1.7797 -0.5271 0
M  V30 25 Pb 2.9344 1.8143 -1.8364 0
M  V30 26 Pd 1.3804 -4.4033 0.9043 0
M  V30 27 Pb 1.5333 -5.0175 0.1296 0
M  V30 28 Pb 0.8220 -5.1083 1.3546 0
M  V30 29 Pb 1.8905 -3.7075 0.3950 0
M  V30 30 Pb 1.1714 -3.7082 1.5989 0
M  V30 31 Pd -3.5331 -5.3960 0.2843 0
M  V30 32 Pb -2.9547 -6.0209 0.8088 0
M  V30 33 Pb -4.0323 -4.6739 -0.1920 0
M  V30 34 Pb -4.3275 -5.9832 0.1168 0
M  V30 35 Pb -2.9822 -4.5927 0.4897 0
M  V30 36 Pd -2.2329 4.5174 0.6820 0
M  V30 37 Pb -1.5399 4.0810 1.2479 0
M  V30 38 Pb -2.8520 3.7738 0.9314 0
M  V30 39 Pb -2.8123 4.7783 -0.0851 0
M  V30 40 Pb -1.6279 5.3013 0.5565 0
M  V30 41 Pd -2.1250 -2.8734 -3.1849 0
M  V30 42 Pb -2.4503 -2.3255 -2.4146 0
M  V30 43 Pb -1.6413 -3.4689 -3.8210 0
M  V30 44 Pb -2.0959 -2.0631 -3.7634 0
M  V30 45 Pb -1.9862 -3.5838 -2.4933 0
M  V30 46 Ag -4.2922 -1.5603 0.5992 0
M  V30 47 Fe -5.4136 -3.5953 0.1531 0
M  V30 48 Ag -5.0512 -5.9188 -0.0219 0
M  V30 49 Ag 0.9792 1.9293 -2.4276 0
M  V30 50 Fe -0.5687 0.4274 -3.4154 0
M  V30 51 Ag -1.9691 -1.3820 -4.0393 0
M  V30 52 Ag -2.5973 0.3574 -1.1602 0
M  V30 53 Fe -3.5642 -1.7923 -0.8440 0
M  V30 54 Ag -4.2890 -4.0272 -0.4722 0
M  V30 55 Ag 3.9875 5.0634 -0.4911 0
M  V30 56 Fe 2.0575 3.8242 -1.1141 0
M  V30 57 Ag 0.1092 2.5374 -1.5604 0
M  V30 58 Ag 1.5634 -5.3521 -0.5393 0
M  V30 59 Fe 0.4153 -5.0000 -2.5794 0
M  V30 60 Ag -1.1599 -3.9953 -4.0308 0
M  V30 61 Ag 3.5026 6.5277 1.1243 0
M  V30 62 Fe 1.1520 6.4092 0.8436 0
M  V30 63 Ag -1.1399 5.8682 0.5692 0
M  V30 64 Ba 0.3923 -5.6614 1.6394 0
M  V30 65 Ga -1.0216 -6.0616 1.4552 0
M  V30 66 Ba -2.4459 -6.3911 1.2192 0
M  V30 67 Ba -1.1877 -1.1518 2.1325 0
M  V30 68 Ga -0.0701 -2.1243 2.1131 0
M  V30 69 Ba 1.0222 -3.1237 2.0534 0
M  V30 70 Ba -2.8127 -3.8620 0.5576 0
M  V30 71 Ga -2.7650 -2.8253 -0.5037 0
M  V30 72 Ba -2.5602 -2.0312 -1.7333 0
M  V30 73 Ba -2.2159 2.4574 -2.2531 0
M  V30 74 Ga -2.7808 3.6847 -1.6659 0
M  V30 75 Ba -3.1294 4.7914 -0.7598 0
M  V30 76 Ba 4.7571 4.7408 2.7085 0
M  V30 77 Ga 4.4273 3.2981 2.7605 0
M  V30 78 Ba 4.0792 1.8629 2.6392 0
M  V30 79 Ba 5.3569 3.6830 0.9834 0
M  V30 80 Ga 4.5269 2.6004 0.4486 0
M  V30 81 Ba 3.5623 1.6635 -0.1352 0
M  V30 82 Ba 2.0373 0.4354 1.7840 0
M  V30 83 Ga 0.7937 0.6127 0.9881 0
M  V30 84 Ba -0.4816 0.7601 0.2379 0
M  V30 85 Ba -3.4161 0.3311 1.6396 0
M  V30 86 Ga -3.3126 1.7833 1.3991 0
M  V30 87 Ba -3.3061 3.2469 1.2108 0
M  V30 88 Ba -2.0960 -2.8176 0.7898 0
M  V30 89 Ga -1.8560 -3.5210 -0.4945 0
M  V30 90 Ba -1.8270 -4.0023 -1.8894 0
M  V30 91 Ba 1.2229 2.1950 0.2660 0
M  V30 92 Ga 0.1099 2.9369 0.9011 0
M  V30 93 Ba -1.0024 3.6628 1.5559 0
M  V30 94 Ba 5.0821 0.9936 0.3097 0
M  V30 95 Ga 4.5846 1.3568 -1.0287 0
M  V30 96 Ba 3.6326 1.7266 -2.0889 0
M  V30 97 Ba 3.4253 -0.5045 0.1191 0
M  V30 98 Ga 2.8273 -1.8534 0.0732 0
M  V30 99 Ba 2.2463 -3.2059 -0.0378 0
M  V30 END ATOM
M  V30 BEGIN BOND
M  V30 1 1 1 2
M  V30 2 1 1 3
M  V30 3 1 1 4
M  V30 4 1 1 5
M  V30 5 1 6 7
M  V30 6 1 6 8
M  V30 7 1 6 9
M  V30 8 1 6 10
M  V30 9 1 11 12
M  V30 10 1 11 13
M  V30 11 1 11 14
M  V30 12 1 11 15
M  V30 13 1 16 17
M  V30 14 1 16 18
M  V30 15 1 16 19
M  V30 16 1 16 20
M  V30 17 1 21 22
M  V30 18 1 21 23
M  V30 19 1 21 24
M  V30 20 1 21 25
M  V30 21 1 26 27
M  V30 22 1 26 28
M  V30 23 1 26 29
M  V30 24 1 26 30
M  V30 25 1 31 32
M  V30 26 1 31 33
M  V30 27 1 31 34
M  V30 28 1 31 35
M  V30 29 1 36 37
M  V30 30 1 36 38
M  V30 31 1 36 39
M  V30 32 1 36 40
M  V30 33 1 41 42
M  V30 34 1 41 43
M  V30 35 1 41 44
M  V30 36 1 41 45
M  V30 37 1 46 47
M  V30 38 1 47 48
M  V30 39 1 49 50
M  V30 40 1 50 51
M  V30 41 1 52 53
M  V30 42 1 53 54
M  V30 43 1 55 56
M  V30 44 1 56 57
M  V30 45 1 58 59
M  V30 46 1 59 60
M  V30 47 1 61 62
M  V30 48 1 62 63
M  V30 49 1 64 65
M  V30 50 1 65 66
M  V30 51 1 67 68
M  V30 52 1 68 69
M  V30 53 1 70 71
M  V30 54 1 71 72
M  V30 55 1 73 74
M  V30 56 1 74 75
M  V30 57 1 76 77
M  V30 58 1 77 78
M  V30 59 1 79 80
M  V30 60 1 80 81
M  V30 61 1 82 83
M  V30 62 1 83 84
M  V30 63 1 85 86
M  V30 64 1 86 87
M  V30 65 1 88 89
M  V30 66 1 89 90
M  V30 67 1 91 92
M  V30 68 1 92 93
M  V30 69 1 94 95
M  V30 70 1 95 96
M  V30 71 1 97 98
M  V30 72 1 98 99
M  V30 73 1 2 55
M  V30 74 1 3 76
M  V30 75 1 4 61
M  V30 76 1 5 79
M  V30 77 1 7 97
M  V30 78 1 8 82
M  V30 79 1 9 94
M  V30 80 1 10 78
M  V30 81 1 12 73
M  V30 82 1 13 52
M  V30 83 1 14 84
M  V30 84 1 15 57
M  V30 85 1 17 46
M  V30 86 1 18 85
M  V30 87 1 19 67
M  V30 88 1 20 88
M  V30 89 1 22 49
M  V30 90 1 23 91
M  V30 91 1 24 81
M  V30 92 1 25 96
M  V30 93 1 27 58
M  V30 94 1 28 64
M  V30 95 1 29 99
M  V30 96 1 30 69
M  V30 97 1 32 66
M  V30 98 1 33 54
M  V30 99 1 34 48
M  V30 100 1 35 70
M  V30 101 1 37 93
M  V30 102 1 38 87
M  V30 103 1 39 75
M  V30 104 1 40 63
M  V30 105 1 42 72
M  V30 106 1 43 60
M  V30 107 1 44 51
M  V30 108 1 45 90
M  V30 END BOND
M  V30 END CTAB
M  END

$$$$
