
     RDKit          3D

  0  0  0  0  0  0  0  0  0  0999 V3000
M  V30 BEGIN CTAB
M  V30 COUNTS 99 108 0 0 0
M  V30 BEGIN ATOM
M  V30 1 Pd 0.1327 -3.0650 8.6672 0
M  V30 2 Pb 0.1785 -3.9238 8.1327 0
M  V30 3 Pb 0.0636 -2.0988 8.9580 0
M  V30 4 Pb -0.8565 -3.1592 8.7176 0
M  V30 5 Pb 1.1234 -2.9725 8.6369 0
M  V30 6 Pd -2.9192 4.0667 -5.3532 0
M  V30 7 Pb -3.5600 3.3004 -5.3325 0
M  V30 8 Pb -2.6540 3.7927 -6.2790 0
M  V30 9 Pb -3.1504 4.3254 -4.4118 0
M  V30 10 Pb -2.2514 4.8071 -5.3683 0
M  V30 11 Pd 4.1559 -0.6197 -0.7656 0
M  V30 12 Pb 4.5434 -1.1089 -1.5501 0
M  V30 13 Pb 4.4287 0.2487 -1.1718 0
M  V30 14 Pb 3.8452 -1.4729 -0.3398 0
M  V30 15 Pb 3.7363 -0.0676 -0.0417 0
M  V30 16 Pd 0.3007 5.1999 -1.5820 0
M  V30 17 Pb 0.2088 5.6435 -2.4722 0
M  V30 18 Pb 0.4213 4.7640 -0.6847 0
M  V30 19 Pb 1.2772 5.0775 -1.7394 0
M  V30 20 Pb -0.6953 5.2325 -1.4888 0
M  V30 21 Pd -1.2334 -4.4591 3.3849 0
M  V30 22 Pb -0.3579 -4.4245 2.8956 0
M  V30 23 Pb -2.1050 -4.4894 3.8636 0
M  V30 24 Pb -1.6967 -3.9735 2.6448 0
M  V30 25 Pb -0.7896 -4.8681 4.2039 0
M  V30 26 Pd -0.9967 0.6448 1.5669 0
M  V30 27 Pb -0.3409 0.1076 1.0422 0
M  V30 28 Pb -1.5958 1.1118 2.2160 0
M  V30 29 Pb -1.6158 -0.1360 1.4713 0
M  V30 30 Pb -0.3943 1.4449 1.5998 0
M  V30 31 Pd 1.8024 -2.9269 -4.7121 0
M  V30 32 Pb 2.7809 -2.7284 -4.6706 0
M  V30 33 Pb 0.8325 -3.1643 -4.7147 0
M  V30 34 Pb 1.7573 -2.8297 -5.7073 0
M  V30 35 Pb 1.8151 -2.9033 -3.7174 0
M  V30 36 Pd 0.8001 1.7907 5.9724 0
M  V30 37 Pb 1.7374 1.5752 6.2294 0
M  V30 38 Pb 1.1242 2.0207 5.0555 0
M  V30 39 Pb -0.1418 1.9778 5.6833 0
M  V30 40 Pb 0.4960 1.4566 6.8826 0
M  V30 41 Pd -2.0621 -0.6665 -7.1530 0
M  V30 42 Pb -2.1349 -1.4898 -6.5962 0
M  V30 43 Pb -2.8916 -0.3005 -6.7303 0
M  V30 44 Pb -1.2161 -1.0358 -7.5476 0
M  V30 45 Pb -1.9754 0.1848 -7.6703 0
M  V30 46 Ag -1.5785 -3.2769 8.6047 0
M  V30 47 Fe -2.6819 -3.9063 6.6244 0
M  V30 48 Ag -2.6731 -4.4593 4.3376 0
M  V30 49 Ag 0.1258 -0.3804 0.7209 0
M  V30 50 Fe 0.9844 -1.5925 -1.1273 0
M  V30 51 Ag 1.8437 -2.7967 -2.9804 0
M  V30 52 Ag 3.4264 0.4334 0.4271 0
M  V30 53 Fe 2.4076 1.2408 2.4167 0
M  V30 54 Ag 1.3856 2.1427 4.3637 0
M  V30 55 Ag 4.5499 0.9409 -1.4228 0
M  V30 56 Fe 3.4303 3.0088 -1.7164 0
M  V30 57 Ag 1.9868 4.8824 -1.8636 0
M  V30 58 Ag 3.5994 -2.1043 -0.0112 0
M  V30 59 Fe 1.9446 -3.2487 1.2579 0
M  V30 60 Ag 0.2987 -4.4066 2.5262 0
M  V30 61 Ag 1.8270 -2.7528 8.5611 0
M  V30 62 Fe 2.6686 -0.7843 7.5825 0
M  V30 63 Ag 2.3678 1.2653 6.4648 0
M  V30 64 Ba -0.0027 -1.3522 9.1002 0
M  V30 65 Ga 0.1573 -0.0908 8.3146 0
M  V30 66 Ba 0.3007 1.2018 7.5785 0
M  V30 67 Ba -2.0872 -3.5705 2.1479 0
M  V30 68 Ga -2.0650 -2.1534 1.7363 0
M  V30 69 Ba -2.0442 -0.7359 1.3257 0
M  V30 70 Ba 0.1061 -3.3442 -4.7344 0
M  V30 71 Ga -1.0478 -2.7523 -5.4289 0
M  V30 72 Ba -2.1426 -2.0946 -6.1586 0
M  V30 73 Ba -1.7342 5.3453 -5.3358 0
M  V30 74 Ga -0.7865 5.6930 -4.2650 0
M  V30 75 Ba 0.1237 5.9676 -3.1417 0
M  V30 76 Ba 0.5820 4.4587 -0.0132 0
M  V30 77 Ga 0.2787 3.2490 0.7832 0
M  V30 78 Ba 0.0240 2.0689 1.6391 0
M  V30 79 Ba -3.2857 4.5325 -3.7001 0
M  V30 80 Ga -2.3990 4.8856 -2.5708 0
M  V30 81 Ba -1.4465 5.2244 -1.4918 0
M  V30 82 Ba 4.8181 -1.4225 -2.1769 0
M  V30 83 Ga 4.1968 -2.0188 -3.3771 0
M  V30 84 Ba 3.5099 -2.6053 -4.5458 0
M  V30 85 Ba 1.6598 -2.7024 -6.4415 0
M  V30 86 Ga 0.5585 -2.0270 -7.1619 0
M  V30 87 Ba -0.5788 -1.3398 -7.8119 0
M  V30 88 Ba -2.4483 3.5581 -6.9624 0
M  V30 89 Ga -2.1819 2.2189 -7.5227 0
M  V30 90 Ba -1.9321 0.8498 -8.0143 0
M  V30 91 Ba -4.0076 2.6999 -5.3462 0
M  V30 92 Ga -3.7898 1.3366 -5.8643 0
M  V30 93 Ba -3.4991 -0.0047 -6.4039 0
M  V30 94 Ba 0.2110 -4.5287 7.6671 0
M  V30 95 Ga -0.1477 -4.8230 6.2451 0
M  V30 96 Ba -0.4820 -5.1832 4.8324 0
M  V30 97 Ba -1.9634 1.4540 2.7724 0
M  V30 98 Ga -1.4582 1.8060 4.1150 0
M  V30 99 Ba -0.8362 2.1046 5.4211 0
M  V30 END ATOM
M  V30 BEGIN BOND
M  V30 1 1 1 2
M  V30 2 1 1 3
M  V30 3 1 1 4
M  V30 4 1 1 5
M  V30 5 1 6 7
M  V30 6 1 6 8
M  V30 7 1 6 9
M  V30 8 1 6 10
M  V30 9 1 11 12
M  V30 10 1 11 13
M  V30 11 1 11 14
M  V30 12 1 11 15
M  V30 13 1 16 17
M  V30 14 1 16 18
M  V30 15 1 16 19
M  V30 16 1 16 20
M  V30 17 1 21 22
M  V30 18 1 21 23
M  V30 19 1 21 24
M  V30 20 1 21 25
M  V30 21 1 26 27
M  V30 22 1 26 28
M  V30 23 1 26 29
M  V30 24 1 26 30
M  V30 25 1 31 32
M  V30 26 1 31 33
M  V30 27 1 31 34
M  V30 28 1 31 35
M  V30 29 1 36 37
M  V30 30 1 36 38
M  V30 31 1 36 39
M  V30 32 1 36 40
M  V30 33 1 41 42
M  V30 34 1 41 43
M  V30 35 1 41 44
M  V30 36 1 41 45
M  V30 37 1 46 47
M  V30 38 1 47 48
M  V30 39 1 49 50
M  V30 40 1 50 51
M  V30 41 1 52 53
M  V30 42 1 53 54
M  V30 43 1 55 56
M  V30 44 1 56 57
M  V30 45 1 58 59
M  V30 46 1 59 60
M  V30 47 1 61 62
M  V30 48 1 62 63
M  V30 49 1 64 65
M  V30 50 1 65 66
M  V30 51 1 67 68
M  V30 52 1 68 69
M  V30 53 1 70 71
M  V30 54 1 71 72
M  V30 55 1 73 74
M  V30 56 1 74 75
M  V30 57 1 76 77
M  V30 58 1 77 78
M  V30 59 1 79 80
M  V30 60 1 80 81
M  V30 61 1 82 83
M  V30 62 1 83 84
M  V30 63 1 85 86
M  V30 64 1 86 87
M  V30 65 1 88 89
M  V30 66 1 89 90
M  V30 67 1 91 92
M  V30 68 1 92 93
M  V30 69 1 94 95
M  V30 70 1 95 96
M  V30 71 1 97 98
M  V30 72 1 98 99
M  V30 73 1 2 94
M  V30 74 1 3 64
M  V30 75 1 4 46
M  V30 76 1 5 61
M  V30 77 1 7 91
M  V30 78 1 8 88
M  V30 79 1 9 79
M  V30 80 1 10 73
M  V30 81 1 12 82
M  V30 82 1 13 55
M  V30 83 1 14 58
M  V30 84 1 15 52
M  V30 85 1 17 75
M  V30 86 1 18 76
M  V30 87 1 19 57
M  V30 88 1 20 81
M  V30 89 1 22 60
M  V30 90 1 23 48
M  V30 91 1 24 67
M  V30 92 1 25 96
M  V30 93 1 27 49
M  V30 94 1 28 97
M  V30 95 1 29 69
M  V30 96 1 30 78
M  V30 97 1 32 84
M  V30 98 1 33 70
M  V30 99 1 34 85
M  V30 100 1 35 51
M  V30 101 1 37 63
M  V30 102 1 38 54
M  V30 103 1 39 99
M  V30 104 1 40 66
M  V30 105 1 42 72
M  V30 106 1 43 93
M  V30 107 1 44 87
M  V30 108 1 45 90
M  V30 END BOND
M  V30 END CTAB
M  END

$$$$
