
     RDKit          3D

  0  0  0  0  0  0  0  0  0  0999 V3000
M  V30 BEGIN CTAB
M  V30 COUNTS 99 108 0 0 0
M  V30 BEGIN ATOM
M  V30 1 Pd -4.7508 -0.6466 -0.1289 0
M  V30 2 Pb -4.2045 0.1304 -0.4536 0
M  V30 3 Pb -5.5597 -0.0619 -0.0866 0
M  V30 4 Pb -3.9559 -1.2543 -0.0872 0
M  V30 5 Pb -5.2866 -1.3666 0.3073 0
M  V30 6 Pd 1.2210 -5.7341 -1.9402 0
M  V30 7 Pb 1.9657 -6.1633 -2.4482 0
M  V30 8 Pb 1.7591 -5.8392 -1.1065 0
M  V30 9 Pb 0.5251 -5.2348 -1.4222 0
M  V30 10 Pb 0.8091 -5.5030 -2.8164 0
M  V30 11 Pd 5.4495 -3.5551 -2.0435 0
M  V30 12 Pb 5.5360 -2.7227 -1.4950 0
M  V30 13 Pb 5.1185 -4.0449 -1.2335 0
M  V30 14 Pb 5.7441 -3.0810 -2.8767 0
M  V30 15 Pb 5.3170 -4.3944 -2.5688 0
M  V30 16 Pd 1.3874 3.4581 -2.9905 0
M  V30 17 Pb 0.9589 3.0647 -3.8017 0
M  V30 18 Pb 1.8419 3.8621 -2.1944 0
M  V30 19 Pb 2.2647 3.4530 -3.4729 0
M  V30 20 Pb 0.5008 3.4206 -2.5259 0
M  V30 21 Pd 2.0387 -0.0428 3.6665 0
M  V30 22 Pb 1.2112 -0.1336 4.2538 0
M  V30 23 Pb 2.1633 0.8968 3.9852 0
M  V30 24 Pb 2.8304 0.0375 3.0592 0
M  V30 25 Pb 1.9252 -0.9828 3.3677 0
M  V30 26 Pd 3.2447 -0.2382 -5.9529 0
M  V30 27 Pb 3.7076 0.6263 -5.7579 0
M  V30 28 Pb 2.3953 0.2663 -6.0940 0
M  V30 29 Pb 4.0984 -0.7341 -5.7743 0
M  V30 30 Pb 2.7273 -1.0814 -6.0895 0
M  V30 31 Pd -5.3197 3.3980 2.7805 0
M  V30 32 Pb -5.2293 4.0296 2.0199 0
M  V30 33 Pb -5.4242 2.7637 3.5498 0
M  V30 34 Pb -4.5089 3.8230 3.2225 0
M  V30 35 Pb -6.0658 2.9599 2.2834 0
M  V30 36 Pd -3.7003 -1.7285 4.3842 0
M  V30 37 Pb -4.2476 -0.9618 4.7260 0
M  V30 38 Pb -3.1631 -2.4888 4.0392 0
M  V30 39 Pb -4.5030 -2.1263 3.9407 0
M  V30 40 Pb -2.8557 -1.3192 4.7783 0
M  V30 41 Pd 0.3913 5.0233 2.2151 0
M  V30 42 Pb 1.1923 5.0385 1.6194 0
M  V30 43 Pb -0.4426 4.9758 2.7964 0
M  V30 44 Pb -0.1358 5.4626 1.4977 0
M  V30 45 Pb 0.9353 4.6010 2.9401 0
M  V30 46 Ag -5.0372 4.4959 1.4795 0
M  V30 47 Fe -2.9576 5.4013 0.8523 0
M  V30 48 Ag -0.6338 5.7311 1.0222 0
M  V30 49 Ag 5.5597 -2.1208 -1.0472 0
M  V30 50 Fe 4.5337 -0.9730 0.7626 0
M  V30 51 Ag 3.4059 0.0662 2.5774 0
M  V30 52 Ag 0.6520 -5.2567 -3.5022 0
M  V30 53 Fe 1.3571 -3.5183 -4.9526 0
M  V30 54 Ag 2.2763 -1.6778 -6.1324 0
M  V30 55 Ag -3.8278 0.7603 -0.6261 0
M  V30 56 Fe -1.9802 2.0226 -1.4320 0
M  V30 57 Ag -0.1834 3.3678 -2.2186 0
M  V30 58 Ag 1.7157 -1.6690 3.1892 0
M  V30 59 Fe -0.3656 -2.7623 3.3153 0
M  V30 60 Ag -2.6651 -2.9683 3.7767 0
M  V30 61 Ag -3.4033 -1.7508 0.0268 0
M  V30 62 Fe -1.6883 -3.2771 -0.5868 0
M  V30 63 Ag 0.0575 -4.8388 -0.9880 0
M  V30 64 Ba 0.6697 2.7612 -4.4214 0
M  V30 65 Ga 1.1753 1.7107 -5.3198 0
M  V30 66 Ba 1.7587 0.6531 -6.1608 0
M  V30 67 Ba -6.1706 0.3598 0.0147 0
M  V30 68 Ga -6.4266 1.4987 0.9128 0
M  V30 69 Ba -6.5735 2.6301 1.8442 0
M  V30 70 Ba 2.2278 4.1700 -1.6273 0
M  V30 71 Ga 1.9893 4.5994 -0.2363 0
M  V30 72 Ba 1.7805 5.0378 1.1568 0
M  V30 73 Ba -5.6620 -1.8632 0.7215 0
M  V30 74 Ga -5.4313 -2.2011 2.1361 0
M  V30 75 Ba -5.0661 -2.4235 3.5454 0
M  V30 76 Ba 2.9135 3.4164 -3.8495 0
M  V30 77 Ga 3.4972 2.3772 -4.7198 0
M  V30 78 Ba 4.0079 1.2888 -5.5757 0
M  V30 79 Ba -5.5140 2.3036 4.1384 0
M  V30 80 Ga -5.0739 0.9514 4.5415 0
M  V30 81 Ba -4.6626 -0.3944 4.9935 0
M  V30 82 Ba 2.2450 -5.8363 -0.5376 0
M  V30 83 Ga 3.5565 -5.1601 -0.5179 0
M  V30 84 Ba 4.8341 -4.4339 -0.6552 0
M  V30 85 Ba 2.2562 1.5950 4.2425 0
M  V30 86 Ga 1.7986 2.9415 3.8517 0
M  V30 87 Ba 1.3551 4.2988 3.4830 0
M  V30 88 Ba 2.5639 -6.4138 -2.8211 0
M  V30 89 Ga 3.8924 -5.7881 -2.9252 0
M  V30 90 Ba 5.1566 -5.0337 -2.9237 0
M  V30 91 Ba -3.9084 4.1476 3.5708 0
M  V30 92 Ga -2.4794 4.5228 3.3407 0
M  V30 93 Ba -1.0503 4.9559 3.2642 0
M  V30 94 Ba 0.6117 -0.1810 4.7314 0
M  V30 95 Ga -0.8141 -0.6233 4.8309 0
M  V30 96 Ba -2.2340 -1.0085 5.1036 0
M  V30 97 Ba 5.9599 -2.7584 -3.5220 0
M  V30 98 Ga 5.3376 -1.9140 -4.5651 0
M  V30 99 Ba 4.7575 -1.0703 -5.6327 0
M  V30 END ATOM
M  V30 BEGIN BOND
M  V30 1 1 1 2
M  V30 2 1 1 3
M  V30 3 1 1 4
M  V30 4 1 1 5
M  V30 5 1 6 7
M  V30 6 1 6 8
M  V30 7 1 6 9
M  V30 8 1 6 10
M  V30 9 1 11 12
M  V30 10 1 11 13
M  V30 11 1 11 14
M  V30 12 1 11 15
M  V30 13 1 16 17
M  V30 14 1 16 18
M  V30 15 1 16 19
M  V30 16 1 16 20
M  V30 17 1 21 22
M  V30 18 1 21 23
M  V30 19 1 21 24
M  V30 20 1 21 25
M  V30 21 1 26 27
M  V30 22 1 26 28
M  V30 23 1 26 29
M  V30 24 1 26 30
M  V30 25 1 31 32
M  V30 26 1 31 33
M  V30 27 1 31 34
M  V30 28 1 31 35
M  V30 29 1 36 37
M  V30 30 1 36 38
M  V30 31 1 36 39
M  V30 32 1 36 40
M  V30 33 1 41 42
M  V30 34 1 41 43
M  V30 35 1 41 44
M  V30 36 1 41 45
M  V30 37 1 46 47
M  V30 38 1 47 48
M  V30 39 1 49 50
M  V30 40 1 50 51
M  V30 41 1 52 53
M  V30 42 1 53 54
M  V30 43 1 55 56
M  V30 44 1 56 57
M  V30 45 1 58 59
M  V30 46 1 59 60
M  V30 47 1 61 62
M  V30 48 1 62 63
M  V30 49 1 64 65
M  V30 50 1 65 66
M  V30 51 1 67 68
M  V30 52 1 68 69
M  V30 53 1 70 71
M  V30 54 1 71 72
M  V30 55 1 73 74
M  V30 56 1 74 75
M  V30 57 1 76 77
M  V30 58 1 77 78
M  V30 59 1 79 80
M  V30 60 1 80 81
M  V30 61 1 82 83
M  V30 62 1 83 84
M  V30 63 1 85 86
M  V30 64 1 86 87
M  V30 65 1 88 89
M  V30 66 1 89 90
M  V30 67 1 91 92
M  V30 68 1 92 93
M  V30 69 1 94 95
M  V30 70 1 95 96
M  V30 71 1 97 98
M  V30 72 1 98 99
M  V30 73 1 2 55
M  V30 74 1 3 67
M  V30 75 1 4 61
M  V30 76 1 5 73
M  V30 77 1 7 88
M  V30 78 1 8 82
M  V30 79 1 9 63
M  V30 80 1 10 52
M  V30 81 1 12 49
M  V30 82 1 13 84
M  V30 83 1 14 97
M  V30 84 1 15 90
M  V30 85 1 17 64
M  V30 86 1 18 70
M  V30 87 1 19 76
M  V30 88 1 20 57
M  V30 89 1 22 94
M  V30 90 1 23 85
M  V30 91 1 24 51
M  V30 92 1 25 58
M  V30 93 1 27 78
M  V30 94 1 28 66
M  V30 95 1 29 99
M  V30 96 1 30 54
M  V30 97 1 32 46
M  V30 98 1 33 79
M  V30 99 1 34 91
M  V30 100 1 35 69
M  V30 101 1 37 81
M  V30 102 1 38 60
M  V30 103 1 39 75
M  V30 104 1 40 96
M  V30 105 1 42 72
M  V30 106 1 43 93
M  V30 107 1 44 48
M  V30 108 1 45 87
M  V30 END BOND
M  V30 END CTAB
M  END

$$$$
