
     RDKit          3D

  0  0  0  0  0  0  0  0  0  0999 V3000
M  V30 BEGIN CTAB
M  V30 COUNTS 99 108 0 0 0
M  V30 BEGIN ATOM
M  V30 1 Pd 0.6863 -6.4237 2.7335 0
M  V30 2 Pb 1.1027 -6.5842 3.6344 0
M  V30 3 Pb 0.3026 -6.2284 1.8370 0
M  V30 4 Pb -0.1873 -6.8650 2.9552 0
M  V30 5 Pb 1.5324 -5.9870 2.4147 0
M  V30 6 Pd -4.0350 -4.4118 3.2797 0
M  V30 7 Pb -4.0409 -3.4795 3.6365 0
M  V30 8 Pb -4.1315 -4.7292 4.2212 0
M  V30 9 Pb -3.8417 -5.3630 3.0397 0
M  V30 10 Pb -3.8176 -4.0933 2.3535 0
M  V30 11 Pd -3.7485 0.2195 -0.1676 0
M  V30 12 Pb -3.4931 -0.7448 -0.0581 0
M  V30 13 Pb -4.0369 0.2202 0.7969 0
M  V30 14 Pb -3.3514 0.2119 -1.0866 0
M  V30 15 Pb -4.0801 1.1464 -0.3788 0
M  V30 16 Pd 1.9983 5.0044 -6.7533 0
M  V30 17 Pb 1.7626 4.1717 -7.2564 0
M  V30 18 Pb 2.5317 5.6951 -6.2627 0
M  V30 19 Pb 2.2978 5.4134 -7.6121 0
M  V30 20 Pb 1.7189 4.5842 -5.8897 0
M  V30 21 Pd -2.1246 5.2961 -0.2161 0
M  V30 22 Pb -1.4370 5.4226 0.5136 0
M  V30 23 Pb -1.4694 4.7837 -0.7705 0
M  V30 24 Pb -2.7864 5.8230 0.3108 0
M  V30 25 Pb -2.8822 4.9495 -0.7622 0
M  V30 26 Pd -1.6640 2.3445 4.0926 0
M  V30 27 Pb -2.4111 2.9476 4.3566 0
M  V30 28 Pb -1.1073 3.1505 3.8377 0
M  V30 29 Pb -2.3156 1.5851 4.1113 0
M  V30 30 Pb -0.8779 1.7430 3.9371 0
M  V30 31 Pd 0.9549 -3.5302 7.0649 0
M  V30 32 Pb 1.4960 -2.9659 6.4461 0
M  V30 33 Pb 1.4974 -4.3530 6.8945 0
M  V30 34 Pb 0.3010 -2.7743 7.0767 0
M  V30 35 Pb 0.2752 -4.0784 7.5449 0
M  V30 36 Pd 5.5882 3.5300 -7.2677 0
M  V30 37 Pb 5.8200 4.3436 -6.7326 0
M  V30 38 Pb 5.0515 2.8233 -7.7311 0
M  V30 39 Pb 5.4756 4.1129 -8.0685 0
M  V30 40 Pb 5.6686 2.9535 -6.4550 0
M  V30 41 Pd 2.4757 -1.9467 -2.7371 0
M  V30 42 Pb 1.7565 -2.6071 -2.5460 0
M  V30 43 Pb 3.2063 -1.2920 -2.9313 0
M  V30 44 Pb 3.0474 -2.4474 -2.0835 0
M  V30 45 Pb 1.8040 -1.4297 -3.2641 0
M  V30 46 Ag -3.8940 -2.8592 4.0272 0
M  V30 47 Fe -2.1818 -2.2687 5.5590 0
M  V30 48 Ag -0.2545 -2.2904 6.9420 0
M  V30 49 Ag 5.7103 2.5236 -5.8423 0
M  V30 50 Fe 4.7424 0.8563 -4.4557 0
M  V30 51 Ag 3.7637 -0.8118 -3.0774 0
M  V30 52 Ag -0.2637 1.3103 3.9025 0
M  V30 53 Fe 0.8754 -0.5623 4.8182 0
M  V30 54 Ag 1.7311 -2.4790 5.9295 0
M  V30 55 Ag -2.9821 0.2165 -1.7405 0
M  V30 56 Fe -0.9379 -0.3658 -2.7995 0
M  V30 57 Ag 1.2024 -1.0800 -3.5393 0
M  V30 58 Ag 0.0630 -6.0346 1.1597 0
M  V30 59 Fe 0.5380 -4.6198 -0.6785 0
M  V30 60 Ag 1.2410 -3.1127 -2.3638 0
M  V30 61 Ag -3.2598 6.0806 0.8180 0
M  V30 62 Fe -3.5918 5.1498 2.9474 0
M  V30 63 Ag -2.9328 3.4662 4.4459 0
M  V30 64 Ag 1.5181 4.2681 -5.2397 0
M  V30 65 Fe 0.2725 4.3275 -3.2185 0
M  V30 66 Ag -0.9841 4.4130 -1.2052 0
M  V30 67 Ag 2.1312 -5.6586 2.0942 0
M  V30 68 Fe 2.8684 -4.2566 0.3179 0
M  V30 69 Ag 3.3693 -2.8350 -1.5238 0
M  V30 70 Ag -4.0596 -4.9489 4.9315 0
M  V30 71 Fe -2.3731 -4.8626 6.5920 0
M  V30 72 Ag -0.3474 -4.4366 7.7420 0
M  V30 73 Ba -0.8696 -7.1849 2.9959 0
M  V30 74 Ga -2.2540 -6.6608 2.9865 0
M  V30 75 Ba -3.6142 -6.0769 2.9817 0
M  V30 76 Ba 1.4716 -6.6713 4.2882 0
M  V30 77 Ga 1.6593 -5.8565 5.5099 0
M  V30 78 Ba 1.8151 -5.0092 6.7137 0
M  V30 79 Ba 1.7910 3.5199 -7.6317 0
M  V30 80 Ga 3.0768 2.8382 -7.9076 0
M  V30 81 Ba 4.4912 2.4136 -8.0222 0
M  V30 82 Ba -4.3432 1.7949 -0.6695 0
M  V30 83 Ga -3.9179 3.1995 -0.8636 0
M  V30 84 Ba -3.4843 4.6037 -1.0406 0
M  V30 85 Ba -0.9665 5.4407 1.1135 0
M  V30 86 Ga -0.8394 4.6064 2.3464 0
M  V30 87 Ba -0.7300 3.7591 3.5722 0
M  V30 88 Ba -3.5884 -3.8800 1.6683 0
M  V30 89 Ga -3.4854 -2.6497 0.8529 0
M  V30 90 Ba -3.3358 -1.4818 -0.0431 0
M  V30 91 Ba -4.1807 0.1394 1.5362 0
M  V30 92 Ga -3.5438 0.6005 2.7938 0
M  V30 93 Ba -2.8771 1.0917 4.0241 0
M  V30 94 Ba 3.0898 6.0928 -5.9514 0
M  V30 95 Ga 4.5033 5.6635 -6.0585 0
M  V30 96 Ba 5.7893 4.9831 -6.3368 0
M  V30 97 Ba 2.6213 5.6589 -8.2370 0
M  V30 98 Ga 3.9676 5.2213 -8.6027 0
M  V30 99 Ba 5.2781 4.5734 -8.6195 0
M  V30 END ATOM
M  V30 BEGIN BOND
M  V30 1 1 1 2
M  V30 2 1 1 3
M  V30 3 1 1 4
M  V30 4 1 1 5
M  V30 5 1 6 7
M  V30 6 1 6 8
M  V30 7 1 6 9
M  V30 8 1 6 10
M  V30 9 1 11 12
M  V30 10 1 11 13
M  V30 11 1 11 14
M  V30 12 1 11 15
M  V30 13 1 16 17
M  V30 14 1 16 18
M  V30 15 1 16 19
M  V30 16 1 16 20
M  V30 17 1 21 22
M  V30 18 1 21 23
M  V30 19 1 21 24
M  V30 20 1 21 25
M  V30 21 1 26 27
M  V30 22 1 26 28
M  V30 23 1 26 29
M  V30 24 1 26 30
M  V30 25 1 31 32
M  V30 26 1 31 33
M  V30 27 1 31 34
M  V30 28 1 31 35
M  V30 29 1 36 37
M  V30 30 1 36 38
M  V30 31 1 36 39
M  V30 32 1 36 40
M  V30 33 1 41 42
M  V30 34 1 41 43
M  V30 35 1 41 44
M  V30 36 1 41 45
M  V30 37 1 46 47
M  V30 38 1 47 48
M  V30 39 1 49 50
M  V30 40 1 50 51
M  V30 41 1 52 53
M  V30 42 1 53 54
M  V30 43 1 55 56
M  V30 44 1 56 57
M  V30 45 1 58 59
M  V30 46 1 59 60
M  V30 47 1 61 62
M  V30 48 1 62 63
M  V30 49 1 64 65
M  V30 50 1 65 66
M  V30 51 1 67 68
M  V30 52 1 68 69
M  V30 53 1 70 71
M  V30 54 1 71 72
M  V30 55 1 73 74
M  V30 56 1 74 75
M  V30 57 1 76 77
M  V30 58 1 77 78
M  V30 59 1 79 80
M  V30 60 1 80 81
M  V30 61 1 82 83
M  V30 62 1 83 84
M  V30 63 1 85 86
M  V30 64 1 86 87
M  V30 65 1 88 89
M  V30 66 1 89 90
M  V30 67 1 91 92
M  V30 68 1 92 93
M  V30 69 1 94 95
M  V30 70 1 95 96
M  V30 71 1 97 98
M  V30 72 1 98 99
M  V30 73 1 2 76
M  V30 74 1 3 58
M  V30 75 1 4 73
M  V30 76 1 5 67
M  V30 77 1 7 46
M  V30 78 1 8 70
M  V30 79 1 9 75
M  V30 80 1 10 88
M  V30 81 1 12 90
M  V30 82 1 13 91
M  V30 83 1 14 55
M  V30 84 1 15 82
M  V30 85 1 17 79
M  V30 86 1 18 94
M  V30 87 1 19 97
M  V30 88 1 20 64
M  V30 89 1 22 85
M  V30 90 1 23 66
M  V30 91 1 24 61
M  V30 92 1 25 84
M  V30 93 1 27 63
M  V30 94 1 28 87
M  V30 95 1 29 93
M  V30 96 1 30 52
M  V30 97 1 32 54
M  V30 98 1 33 78
M  V30 99 1 34 48
M  V30 100 1 35 72
M  V30 101 1 37 96
M  V30 102 1 38 81
M  V30 103 1 39 99
M  V30 104 1 40 49
M  V30 105 1 42 60
M  V30 106 1 43 51
M  V30 107 1 44 69
M  V30 108 1 45 57
M  V30 END BOND
M  V30 END CTAB
M  END

$$$$
