
     RDKit          3D

  0  0  0  0  0  0  0  0  0  0999 V3000
M  V30 BEGIN CTAB
M  V30 COUNTS 99 108 0 0 0
M  V30 BEGIN ATOM
M  V30 1 Pd -1.0760 -4.3274 -0.0223 0
M  V30 2 Pb -1.3858 -3.5187 0.4815 0
M  V30 3 Pb -2.0289 -4.6282 -0.0999 0
M  V30 4 Pb -0.1041 -4.0907 0.0435 0
M  V30 5 Pb -0.7814 -5.0782 -0.6100 0
M  V30 6 Pd -3.5858 0.3587 -4.2216 0
M  V30 7 Pb -2.9770 0.6585 -3.4862 0
M  V30 8 Pb -4.3338 0.3183 -3.5585 0
M  V30 9 Pb -2.8469 0.2585 -4.8870 0
M  V30 10 Pb -4.2120 0.0158 -4.9168 0
M  V30 11 Pd 0.3732 6.2271 4.5431 0
M  V30 12 Pb 0.5209 6.0994 5.5194 0
M  V30 13 Pb 0.2271 6.3294 3.5581 0
M  V30 14 Pb 1.2886 6.6182 4.4471 0
M  V30 15 Pb -0.5089 5.7352 4.6360 0
M  V30 16 Pd 6.8723 3.9079 1.9865 0
M  V30 17 Pb 6.5270 4.7329 2.4339 0
M  V30 18 Pb 7.1172 3.0519 1.5373 0
M  V30 19 Pb 6.7663 4.3342 1.0906 0
M  V30 20 Pb 6.8275 3.3870 2.8405 0
M  V30 21 Pd 1.3254 3.0098 -2.2935 0
M  V30 22 Pb 0.4696 2.5345 -2.0910 0
M  V30 23 Pb 0.9654 3.8293 -1.8471 0
M  V30 24 Pb 2.1996 3.4787 -2.4202 0
M  V30 25 Pb 1.6967 2.1611 -2.6718 0
M  V30 26 Pd 3.8389 -2.4139 2.7748 0
M  V30 27 Pb 4.5704 -2.1317 2.1578 0
M  V30 28 Pb 3.1045 -2.6498 3.4095 0
M  V30 29 Pb 3.4002 -2.9043 2.0206 0
M  V30 30 Pb 4.2762 -1.8327 3.4651 0
M  V30 31 Pd -1.8229 1.0091 5.7228 0
M  V30 32 Pb -2.1082 0.6837 4.8220 0
M  V30 33 Pb -1.4564 0.0969 5.8909 0
M  V30 34 Pb -2.0997 1.9584 5.4968 0
M  V30 35 Pb -1.4975 1.3357 6.6051 0
M  V30 36 Pd -0.4695 -3.8282 -5.0128 0
M  V30 37 Pb 0.3217 -3.2992 -4.7074 0
M  V30 38 Pb -1.2713 -4.3544 -5.3043 0
M  V30 39 Pb -0.7027 -3.0234 -5.5638 0
M  V30 40 Pb -0.2289 -4.6091 -4.4347 0
M  V30 41 Pd -5.4725 -3.8572 -3.4547 0
M  V30 42 Pb -5.8441 -3.0970 -2.9209 0
M  V30 43 Pb -5.2215 -4.3398 -2.6139 0
M  V30 44 Pb -5.0161 -4.5367 -4.0273 0
M  V30 45 Pb -5.7148 -3.3610 -4.2856 0
M  V30 46 Ag -1.6767 -2.9004 0.7959 0
M  V30 47 Fe -1.9574 -1.2618 2.4935 0
M  V30 48 Ag -2.2890 0.4118 4.1473 0
M  V30 49 Ag 1.9559 1.4989 -2.9122 0
M  V30 50 Fe 1.4780 -0.6858 -3.7130 0
M  V30 51 Ag 0.8828 -2.8429 -4.5096 0
M  V30 52 Ag 6.5762 4.5621 0.4042 0
M  V30 53 Fe 4.7967 4.3032 -1.1448 0
M  V30 54 Ag 2.8594 3.8348 -2.4338 0
M  V30 55 Ag 7.2070 2.3708 1.2442 0
M  V30 56 Fe 6.2843 0.1900 1.3632 0
M  V30 57 Ag 5.1223 -1.8409 1.7461 0
M  V30 58 Ag 0.5542 5.8613 6.2212 0
M  V30 59 Fe -0.1968 3.8477 7.1901 0
M  V30 60 Ag -1.2049 1.7169 7.1699 0
M  V30 61 Ag 6.7137 2.9033 3.4047 0
M  V30 62 Fe 5.7136 0.7865 3.8222 0
M  V30 63 Ag 4.6330 -1.3307 3.8981 0
M  V30 64 Ag 1.9996 6.8407 4.3611 0
M  V30 65 Fe 4.1472 6.1849 3.5874 0
M  V30 66 Ag 6.1992 5.3261 2.7553 0
M  V30 67 Ag 2.5514 -2.7683 3.9002 0
M  V30 68 Fe 0.6849 -1.7907 4.9907 0
M  V30 69 Ag -1.1226 -0.5709 5.9251 0
M  V30 70 Ag 0.1279 6.3903 2.8162 0
M  V30 71 Fe 0.3959 5.4463 0.6525 0
M  V30 72 Ag 0.7067 4.4237 -1.4693 0
M  V30 73 Ba -2.5875 0.8512 -2.8740 0
M  V30 74 Ga -1.3484 1.5302 -2.4500 0
M  V30 75 Ba -0.1539 2.1781 -1.8758 0
M  V30 76 Ba -1.1733 5.3645 4.7090 0
M  V30 77 Ga -1.6891 3.9987 5.0222 0
M  V30 78 Ba -2.3070 2.6733 5.3236 0
M  V30 79 Ba -4.6894 -0.3076 -5.3898 0
M  V30 80 Ga -5.3270 -1.6208 -5.2288 0
M  V30 81 Ba -5.8604 -2.9466 -4.8901 0
M  V30 82 Ba -4.8925 0.1887 -3.0743 0
M  V30 83 Ga -5.5358 -1.1025 -2.7622 0
M  V30 84 Ba -6.0628 -2.4683 -2.5742 0
M  V30 85 Ba -2.3461 0.0927 -5.4204 0
M  V30 86 Ga -1.5665 -1.1332 -5.6920 0
M  V30 87 Ba -0.8032 -2.3753 -5.9347 0
M  V30 88 Ba 0.6453 -4.0240 0.0144 0
M  V30 89 Ga 1.8337 -3.5936 0.7793 0
M  V30 90 Ba 3.1219 -3.2174 1.3974 0
M  V30 91 Ba -0.5287 -5.5813 -1.1025 0
M  V30 92 Ga -0.2938 -5.4383 -2.5509 0
M  V30 93 Ba -0.0921 -5.2001 -3.9919 0
M  V30 94 Ba -1.8560 -4.7969 -5.4738 0
M  V30 95 Ga -3.2512 -4.9061 -5.0024 0
M  V30 96 Ba -4.6394 -4.9754 -4.5039 0
M  V30 97 Ba -2.7342 -4.8855 -0.1462 0
M  V30 98 Ga -3.8779 -4.7711 -1.0745 0
M  V30 99 Ba -5.0494 -4.6886 -1.9710 0
M  V30 END ATOM
M  V30 BEGIN BOND
M  V30 1 1 1 2
M  V30 2 1 1 3
M  V30 3 1 1 4
M  V30 4 1 1 5
M  V30 5 1 6 7
M  V30 6 1 6 8
M  V30 7 1 6 9
M  V30 8 1 6 10
M  V30 9 1 11 12
M  V30 10 1 11 13
M  V30 11 1 11 14
M  V30 12 1 11 15
M  V30 13 1 16 17
M  V30 14 1 16 18
M  V30 15 1 16 19
M  V30 16 1 16 20
M  V30 17 1 21 22
M  V30 18 1 21 23
M  V30 19 1 21 24
M  V30 20 1 21 25
M  V30 21 1 26 27
M  V30 22 1 26 28
M  V30 23 1 26 29
M  V30 24 1 26 30
M  V30 25 1 31 32
M  V30 26 1 31 33
M  V30 27 1 31 34
M  V30 28 1 31 35
M  V30 29 1 36 37
M  V30 30 1 36 38
M  V30 31 1 36 39
M  V30 32 1 36 40
M  V30 33 1 41 42
M  V30 34 1 41 43
M  V30 35 1 41 44
M  V30 36 1 41 45
M  V30 37 1 46 47
M  V30 38 1 47 48
M  V30 39 1 49 50
M  V30 40 1 50 51
M  V30 41 1 52 53
M  V30 42 1 53 54
M  V30 43 1 55 56
M  V30 44 1 56 57
M  V30 45 1 58 59
M  V30 46 1 59 60
M  V30 47 1 61 62
M  V30 48 1 62 63
M  V30 49 1 64 65
M  V30 50 1 65 66
M  V30 51 1 67 68
M  V30 52 1 68 69
M  V30 53 1 70 71
M  V30 54 1 71 72
M  V30 55 1 73 74
M  V30 56 1 74 75
M  V30 57 1 76 77
M  V30 58 1 77 78
M  V30 59 1 79 80
M  V30 60 1 80 81
M  V30 61 1 82 83
M  V30 62 1 83 84
M  V30 63 1 85 86
M  V30 64 1 86 87
M  V30 65 1 88 89
M  V30 66 1 89 90
M  V30 67 1 91 92
M  V30 68 1 92 93
M  V30 69 1 94 95
M  V30 70 1 95 96
M  V30 71 1 97 98
M  V30 72 1 98 99
M  V30 73 1 2 46
M  V30 74 1 3 97
M  V30 75 1 4 88
M  V30 76 1 5 91
M  V30 77 1 7 73
M  V30 78 1 8 82
M  V30 79 1 9 85
M  V30 80 1 10 79
M  V30 81 1 12 58
M  V30 82 1 13 70
M  V30 83 1 14 64
M  V30 84 1 15 76
M  V30 85 1 17 66
M  V30 86 1 18 55
M  V30 87 1 19 52
M  V30 88 1 20 61
M  V30 89 1 22 75
M  V30 90 1 23 72
M  V30 91 1 24 54
M  V30 92 1 25 49
M  V30 93 1 27 57
M  V30 94 1 28 67
M  V30 95 1 29 90
M  V30 96 1 30 63
M  V30 97 1 32 48
M  V30 98 1 33 69
M  V30 99 1 34 78
M  V30 100 1 35 60
M  V30 101 1 37 51
M  V30 102 1 38 94
M  V30 103 1 39 87
M  V30 104 1 40 93
M  V30 105 1 42 84
M  V30 106 1 43 99
M  V30 107 1 44 96
M  V30 108 1 45 81
M  V30 END BOND
M  V30 END CTAB
M  END

$$$$
