
     RDKit          3D

  0  0  0  0  0  0  0  0  0  0999 V3000
M  V30 BEGIN CTAB
M  V30 COUNTS 99 108 0 0 0
M  V30 BEGIN ATOM
M  V30 1 Pd -2.9040 3.6033 -2.5757 0
M  V30 2 Pb -3.3867 2.7597 -2.3321 0
M  V30 3 Pb -2.4513 4.4591 -2.8381 0
M  V30 4 Pb -2.9615 3.9171 -1.6294 0
M  V30 5 Pb -2.8107 3.2430 -3.5036 0
M  V30 6 Pd 6.2993 3.7835 -0.7825 0
M  V30 7 Pb 5.9579 3.1611 -0.0812 0
M  V30 8 Pb 6.5219 4.4213 -1.5349 0
M  V30 9 Pb 6.2374 3.0146 -1.4155 0
M  V30 10 Pb 6.2764 4.5652 -0.1638 0
M  V30 11 Pd -3.3131 -7.3632 1.4790 0
M  V30 12 Pb -4.0102 -6.7824 1.0264 0
M  V30 13 Pb -2.6651 -7.2022 0.7345 0
M  V30 14 Pb -2.5811 -7.8208 1.9796 0
M  V30 15 Pb -3.9291 -7.4718 2.2525 0
M  V30 16 Pd 2.1619 -4.2457 4.5407 0
M  V30 17 Pb 1.9500 -5.2204 4.4947 0
M  V30 18 Pb 1.3464 -4.0910 5.0973 0
M  V30 19 Pb 2.9232 -4.3740 3.9056 0
M  V30 20 Pb 2.2813 -3.2524 4.5344 0
M  V30 21 Pd 2.2906 -2.7297 -0.3634 0
M  V30 22 Pb 2.7161 -1.9073 0.0191 0
M  V30 23 Pb 1.8405 -3.5624 -0.6863 0
M  V30 24 Pb 2.9709 -3.2631 0.1416 0
M  V30 25 Pb 1.5787 -2.2147 -0.8474 0
M  V30 26 Pd -2.7456 1.0290 4.5190 0
M  V30 27 Pb -2.6835 0.1754 5.0352 0
M  V30 28 Pb -3.7442 0.9799 4.4813 0
M  V30 29 Pb -2.7857 1.8672 3.9771 0
M  V30 30 Pb -1.7443 1.0321 4.5127 0
M  V30 31 Pd -6.1230 -2.2194 1.8953 0
M  V30 32 Pb -5.8660 -1.6778 1.0925 0
M  V30 33 Pb -6.2419 -1.3954 2.4517 0
M  V30 34 Pb -6.3960 -2.7784 2.6719 0
M  V30 35 Pb -5.9853 -3.0709 1.3572 0
M  V30 36 Pd 0.9599 0.7121 -4.8255 0
M  V30 37 Pb 0.5754 0.1347 -4.1028 0
M  V30 38 Pb 1.3412 1.3678 -5.4738 0
M  V30 39 Pb 1.8916 0.4962 -4.5381 0
M  V30 40 Pb 0.0422 0.9820 -5.1207 0
M  V30 41 Pd 3.5231 7.4224 -3.9636 0
M  V30 42 Pb 4.4836 7.1195 -3.8806 0
M  V30 43 Pb 2.5393 7.6006 -3.9645 0
M  V30 44 Pb 3.3976 6.8181 -4.7485 0
M  V30 45 Pb 3.6519 7.9675 -3.1385 0
M  V30 46 Ag 5.6330 2.6594 0.3690 0
M  V30 47 Fe 4.3489 0.6610 0.3969 0
M  V30 48 Ag 3.0621 -1.3357 0.3645 0
M  V30 49 Ag -3.7659 2.1245 -2.1973 0
M  V30 50 Fe -4.6981 0.4448 -0.7972 0
M  V30 51 Ag -5.6888 -1.3133 0.4591 0
M  V30 52 Ag 0.7114 -3.9082 5.4507 0
M  V30 53 Fe -0.9960 -2.2607 5.5320 0
M  V30 54 Ag -2.5479 -0.4694 5.3920 0
M  V30 55 Ag -4.4131 -7.3826 2.8065 0
M  V30 56 Fe -5.7097 -5.5049 3.3971 0
M  V30 57 Ag -6.5281 -3.3051 3.1770 0
M  V30 58 Ag 6.1552 5.2286 0.1482 0
M  V30 59 Fe 5.0268 7.0898 -0.7619 0
M  V30 60 Ag 3.8433 8.2150 -2.4645 0
M  V30 61 Ag 2.2586 -2.5021 4.5285 0
M  V30 62 Fe 0.7385 -0.6757 4.5181 0
M  V30 63 Ag -0.9978 0.9467 4.5102 0
M  V30 64 Ag -1.9850 -8.0520 2.3672 0
M  V30 65 Fe -0.0690 -7.1667 3.4496 0
M  V30 66 Ag 1.7071 -5.9234 4.4122 0
M  V30 67 Ag 6.1045 2.4278 -1.8598 0
M  V30 68 Fe 4.4281 1.3307 -3.1311 0
M  V30 69 Ag 2.6073 0.4051 -4.3385 0
M  V30 70 Ag -2.9818 4.1115 -0.9069 0
M  V30 71 Fe -2.9134 3.3591 1.3431 0
M  V30 72 Ag -2.8338 2.4771 3.5451 0
M  V30 73 Ag 1.6311 1.9189 -5.8875 0
M  V30 74 Fe 2.4856 4.1267 -5.7364 0
M  V30 75 Ag 3.2842 6.3158 -5.2915 0
M  V30 76 Ag -2.1283 5.1099 -3.0363 0
M  V30 77 Fe -0.1964 6.4162 -3.4976 0
M  V30 78 Ag 1.7907 7.6436 -3.9395 0
M  V30 79 Ag -2.1406 -7.0580 0.2181 0
M  V30 80 Fe -0.3305 -5.6546 -0.4107 0
M  V30 81 Ag 1.4540 -4.1671 -0.9047 0
M  V30 82 Ba 0.9920 -1.9010 -1.2008 0
M  V30 83 Ga 0.6824 -1.0683 -2.3824 0
M  V30 84 Ba 0.2606 -0.2441 -3.5349 0
M  V30 85 Ba 3.4538 -4.4657 3.3838 0
M  V30 86 Ga 3.4996 -4.0687 1.9632 0
M  V30 87 Ba 3.4751 -3.6405 0.5511 0
M  V30 88 Ba 6.6688 4.9114 -2.0989 0
M  V30 89 Ga 5.9103 5.8832 -2.9357 0
M  V30 90 Ba 5.1967 6.8673 -3.7973 0
M  V30 91 Ba -4.5278 -6.3352 0.6856 0
M  V30 92 Ga -5.1866 -5.0068 0.8668 0
M  V30 93 Ba -5.9147 -3.7041 0.9317 0
M  V30 94 Ba -2.7347 2.9223 -4.1771 0
M  V30 95 Ga -1.6884 2.0730 -4.7790 0
M  V30 96 Ba -0.6278 1.2255 -5.3577 0
M  V30 97 Ba -4.4910 0.9478 4.4132 0
M  V30 98 Ga -5.4155 0.0789 3.6580 0
M  V30 99 Ba -6.3292 -0.7971 2.8978 0
M  V30 END ATOM
M  V30 BEGIN BOND
M  V30 1 1 1 2
M  V30 2 1 1 3
M  V30 3 1 1 4
M  V30 4 1 1 5
M  V30 5 1 6 7
M  V30 6 1 6 8
M  V30 7 1 6 9
M  V30 8 1 6 10
M  V30 9 1 11 12
M  V30 10 1 11 13
M  V30 11 1 11 14
M  V30 12 1 11 15
M  V30 13 1 16 17
M  V30 14 1 16 18
M  V30 15 1 16 19
M  V30 16 1 16 20
M  V30 17 1 21 22
M  V30 18 1 21 23
M  V30 19 1 21 24
M  V30 20 1 21 25
M  V30 21 1 26 27
M  V30 22 1 26 28
M  V30 23 1 26 29
M  V30 24 1 26 30
M  V30 25 1 31 32
M  V30 26 1 31 33
M  V30 27 1 31 34
M  V30 28 1 31 35
M  V30 29 1 36 37
M  V30 30 1 36 38
M  V30 31 1 36 39
M  V30 32 1 36 40
M  V30 33 1 41 42
M  V30 34 1 41 43
M  V30 35 1 41 44
M  V30 36 1 41 45
M  V30 37 1 46 47
M  V30 38 1 47 48
M  V30 39 1 49 50
M  V30 40 1 50 51
M  V30 41 1 52 53
M  V30 42 1 53 54
M  V30 43 1 55 56
M  V30 44 1 56 57
M  V30 45 1 58 59
M  V30 46 1 59 60
M  V30 47 1 61 62
M  V30 48 1 62 63
M  V30 49 1 64 65
M  V30 50 1 65 66
M  V30 51 1 67 68
M  V30 52 1 68 69
M  V30 53 1 70 71
M  V30 54 1 71 72
M  V30 55 1 73 74
M  V30 56 1 74 75
M  V30 57 1 76 77
M  V30 58 1 77 78
M  V30 59 1 79 80
M  V30 60 1 80 81
M  V30 61 1 82 83
M  V30 62 1 83 84
M  V30 63 1 85 86
M  V30 64 1 86 87
M  V30 65 1 88 89
M  V30 66 1 89 90
M  V30 67 1 91 92
M  V30 68 1 92 93
M  V30 69 1 94 95
M  V30 70 1 95 96
M  V30 71 1 97 98
M  V30 72 1 98 99
M  V30 73 1 2 49
M  V30 74 1 3 76
M  V30 75 1 4 70
M  V30 76 1 5 94
M  V30 77 1 7 46
M  V30 78 1 8 88
M  V30 79 1 9 67
M  V30 80 1 10 58
M  V30 81 1 12 91
M  V30 82 1 13 79
M  V30 83 1 14 64
M  V30 84 1 15 55
M  V30 85 1 17 66
M  V30 86 1 18 52
M  V30 87 1 19 85
M  V30 88 1 20 61
M  V30 89 1 22 48
M  V30 90 1 23 81
M  V30 91 1 24 87
M  V30 92 1 25 82
M  V30 93 1 27 54
M  V30 94 1 28 97
M  V30 95 1 29 72
M  V30 96 1 30 63
M  V30 97 1 32 51
M  V30 98 1 33 99
M  V30 99 1 34 57
M  V30 100 1 35 93
M  V30 101 1 37 84
M  V30 102 1 38 73
M  V30 103 1 39 69
M  V30 104 1 40 96
M  V30 105 1 42 90
M  V30 106 1 43 78
M  V30 107 1 44 75
M  V30 108 1 45 60
M  V30 END BOND
M  V30 END CTAB
M  END

$$$$
