
     RDKit          3D

  0  0  0  0  0  0  0  0  0  0999 V3000
M  V30 BEGIN CTAB
M  V30 COUNTS 99 108 0 0 0
M  V30 BEGIN ATOM
M  V30 1 Pd 1.9848 1.7889 3.0275 0
M  V30 2 Pb 2.3087 2.5105 2.4206 0
M  V30 3 Pb 1.5986 1.3793 2.2051 0
M  V30 4 Pb 2.3051 2.3001 3.8270 0
M  V30 5 Pb 1.6830 1.0106 3.5802 0
M  V30 6 Pd 3.2133 -6.7596 -4.0694 0
M  V30 7 Pb 2.3289 -7.0955 -3.7453 0
M  V30 8 Pb 2.7900 -6.2742 -4.8333 0
M  V30 9 Pb 3.6319 -7.0484 -3.2132 0
M  V30 10 Pb 4.0779 -6.3453 -4.3473 0
M  V30 11 Pd -4.1578 1.6199 -2.6664 0
M  V30 12 Pb -3.3806 2.1501 -3.0604 0
M  V30 13 Pb -3.6846 0.7428 -2.8001 0
M  V30 14 Pb -4.9195 1.1498 -2.2206 0
M  V30 15 Pb -4.6772 2.4645 -2.6094 0
M  V30 16 Pd -5.2261 0.6833 2.5098 0
M  V30 17 Pb -5.7311 0.5687 1.6522 0
M  V30 18 Pb -5.3205 1.6797 2.5072 0
M  V30 19 Pb -5.0291 -0.2925 2.5199 0
M  V30 20 Pb -4.7047 0.7877 3.3541 0
M  V30 21 Pd -1.0581 -5.2414 -0.4616 0
M  V30 22 Pb -0.6246 -5.8848 -1.1020 0
M  V30 23 Pb -1.3677 -4.6586 -1.2172 0
M  V30 24 Pb -1.6280 -4.7225 0.1718 0
M  V30 25 Pb -0.6989 -5.7273 0.3380 0
M  V30 26 Pd -0.5691 5.5423 4.9023 0
M  V30 27 Pb -1.4921 5.6397 4.5241 0
M  V30 28 Pb -0.2748 6.3259 4.3553 0
M  V30 29 Pb 0.3588 5.3388 5.2185 0
M  V30 30 Pb -0.8978 4.7241 5.3660 0
M  V30 31 Pd -0.6972 6.4056 -2.0906 0
M  V30 32 Pb 0.1893 6.0215 -1.8461 0
M  V30 33 Pb -0.5014 7.1093 -1.4092 0
M  V30 34 Pb -1.6016 6.7819 -2.2548 0
M  V30 35 Pb -0.9283 5.6025 -2.6751 0
M  V30 36 Pd 2.7300 -3.6124 2.5332 0
M  V30 37 Pb 2.0925 -4.3571 2.7436 0
M  V30 38 Pb 3.3361 -2.8765 2.2200 0
M  V30 39 Pb 3.2347 -4.2850 1.9918 0
M  V30 40 Pb 2.2310 -2.9699 3.1230 0
M  V30 41 Pd 3.9164 -0.3128 -3.7742 0
M  V30 42 Pb 3.4234 -0.6672 -4.5688 0
M  V30 43 Pb 3.0676 -0.0176 -3.3465 0
M  V30 44 Pb 4.3618 -0.1381 -2.8951 0
M  V30 45 Pb 4.7281 -0.7713 -4.1257 0
M  V30 46 Ag 2.5175 2.9906 1.8874 0
M  V30 47 Fe 1.7776 4.4065 0.1349 0
M  V30 48 Ag 0.8308 5.7695 -1.5588 0
M  V30 49 Ag -4.8167 -1.0073 2.5308 0
M  V30 50 Fe -3.4594 -2.7002 1.5731 0
M  V30 51 Ag -2.1170 -4.4263 0.6545 0
M  V30 52 Ag -5.2809 2.4270 2.5738 0
M  V30 53 Fe -3.8308 4.1400 3.3579 0
M  V30 54 Ag -2.1785 5.6179 4.2170 0
M  V30 55 Ag -4.9709 3.1442 -2.6037 0
M  V30 56 Fe -4.0606 5.3134 -2.5062 0
M  V30 57 Ag -2.3265 6.8962 -2.3401 0
M  V30 58 Ag 4.6676 -5.9249 -4.5304 0
M  V30 59 Fe 5.2443 -3.6274 -4.5565 0
M  V30 60 Ag 5.2335 -1.2672 -4.3578 0
M  V30 61 Ag 2.5441 -5.7576 -5.3167 0
M  V30 62 Fe 2.6635 -3.3908 -5.4570 0
M  V30 63 Ag 3.0798 -1.0825 -5.0901 0
M  V30 64 Ag -4.2924 0.9164 3.9642 0
M  V30 65 Fe -2.7343 2.4136 4.9391 0
M  V30 66 Ag -1.2053 4.0929 5.6179 0
M  V30 67 Ag 3.9198 -7.1199 -2.5284 0
M  V30 68 Fe 3.8239 -6.0562 -0.4094 0
M  V30 69 Ag 3.5723 -4.8364 1.6109 0
M  V30 70 Ag 3.7636 -2.3331 1.9203 0
M  V30 71 Fe 4.2856 -1.1400 -0.0699 0
M  V30 72 Ag 4.6129 -0.1080 -2.1875 0
M  V30 73 Ag 1.3184 1.1818 1.5412 0
M  V30 74 Fe 1.7795 0.6425 -0.7208 0
M  V30 75 Ag 2.4650 0.1130 -2.9274 0
M  V30 76 Ag -0.1243 6.8756 3.8680 0
M  V30 77 Fe -0.1696 7.3804 1.5484 0
M  V30 78 Ag -0.3307 7.5328 -0.8154 0
M  V30 79 Ag -3.3773 0.0685 -2.9478 0
M  V30 80 Fe -2.4784 -2.0475 -2.3310 0
M  V30 81 Ag -1.5718 -4.1717 -1.7549 0
M  V30 82 Ba 1.6707 -7.3365 -3.4775 0
M  V30 83 Ga 0.6644 -6.8331 -2.5168 0
M  V30 84 Ba -0.4047 -6.4305 -1.5770 0
M  V30 85 Ba -0.4353 -6.0075 0.9852 0
M  V30 86 Ga 0.5926 -5.5093 1.9260 0
M  V30 87 Ba 1.6339 -4.9500 2.8164 0
M  V30 88 Ba -2.8065 2.5531 -3.3776 0
M  V30 89 Ga -1.9809 3.7886 -3.1797 0
M  V30 90 Ba -1.0835 4.9875 -3.1110 0
M  V30 91 Ba -5.4978 0.8411 -1.8560 0
M  V30 92 Ga -5.8032 0.6371 -0.4259 0
M  V30 93 Ba -6.0964 0.4396 1.0078 0
M  V30 94 Ba 2.5057 2.7548 4.3914 0
M  V30 95 Ga 1.8183 3.9360 4.9542 0
M  V30 96 Ba 1.0363 5.0949 5.4336 0
M  V30 97 Ba 1.4589 0.3998 3.9561 0
M  V30 98 Ga 1.6674 -1.0526 3.7680 0
M  V30 99 Ba 1.8646 -2.5085 3.5947 0
M  V30 END ATOM
M  V30 BEGIN BOND
M  V30 1 1 1 2
M  V30 2 1 1 3
M  V30 3 1 1 4
M  V30 4 1 1 5
M  V30 5 1 6 7
M  V30 6 1 6 8
M  V30 7 1 6 9
M  V30 8 1 6 10
M  V30 9 1 11 12
M  V30 10 1 11 13
M  V30 11 1 11 14
M  V30 12 1 11 15
M  V30 13 1 16 17
M  V30 14 1 16 18
M  V30 15 1 16 19
M  V30 16 1 16 20
M  V30 17 1 21 22
M  V30 18 1 21 23
M  V30 19 1 21 24
M  V30 20 1 21 25
M  V30 21 1 26 27
M  V30 22 1 26 28
M  V30 23 1 26 29
M  V30 24 1 26 30
M  V30 25 1 31 32
M  V30 26 1 31 33
M  V30 27 1 31 34
M  V30 28 1 31 35
M  V30 29 1 36 37
M  V30 30 1 36 38
M  V30 31 1 36 39
M  V30 32 1 36 40
M  V30 33 1 41 42
M  V30 34 1 41 43
M  V30 35 1 41 44
M  V30 36 1 41 45
M  V30 37 1 46 47
M  V30 38 1 47 48
M  V30 39 1 49 50
M  V30 40 1 50 51
M  V30 41 1 52 53
M  V30 42 1 53 54
M  V30 43 1 55 56
M  V30 44 1 56 57
M  V30 45 1 58 59
M  V30 46 1 59 60
M  V30 47 1 61 62
M  V30 48 1 62 63
M  V30 49 1 64 65
M  V30 50 1 65 66
M  V30 51 1 67 68
M  V30 52 1 68 69
M  V30 53 1 70 71
M  V30 54 1 71 72
M  V30 55 1 73 74
M  V30 56 1 74 75
M  V30 57 1 76 77
M  V30 58 1 77 78
M  V30 59 1 79 80
M  V30 60 1 80 81
M  V30 61 1 82 83
M  V30 62 1 83 84
M  V30 63 1 85 86
M  V30 64 1 86 87
M  V30 65 1 88 89
M  V30 66 1 89 90
M  V30 67 1 91 92
M  V30 68 1 92 93
M  V30 69 1 94 95
M  V30 70 1 95 96
M  V30 71 1 97 98
M  V30 72 1 98 99
M  V30 73 1 2 46
M  V30 74 1 3 73
M  V30 75 1 4 94
M  V30 76 1 5 97
M  V30 77 1 7 82
M  V30 78 1 8 61
M  V30 79 1 9 67
M  V30 80 1 10 58
M  V30 81 1 12 88
M  V30 82 1 13 79
M  V30 83 1 14 91
M  V30 84 1 15 55
M  V30 85 1 17 93
M  V30 86 1 18 52
M  V30 87 1 19 49
M  V30 88 1 20 64
M  V30 89 1 22 84
M  V30 90 1 23 81
M  V30 91 1 24 51
M  V30 92 1 25 85
M  V30 93 1 27 54
M  V30 94 1 28 76
M  V30 95 1 29 96
M  V30 96 1 30 66
M  V30 97 1 32 48
M  V30 98 1 33 78
M  V30 99 1 34 57
M  V30 100 1 35 90
M  V30 101 1 37 87
M  V30 102 1 38 70
M  V30 103 1 39 69
M  V30 104 1 40 99
M  V30 105 1 42 63
M  V30 106 1 43 75
M  V30 107 1 44 72
M  V30 108 1 45 60
M  V30 END BOND
M  V30 END CTAB
M  END

$$$$
