
     RDKit          3D

  0  0  0  0  0  0  0  0  0  0999 V3000
M  V30 BEGIN CTAB
M  V30 COUNTS 99 108 0 0 0
M  V30 BEGIN ATOM
M  V30 1 Pd 1.4033 -0.6993 -3.0478 0
M  V30 2 Pb 1.8517 -1.0034 -3.9137 0
M  V30 3 Pb 2.1968 -0.9459 -2.4652 0
M  V30 4 Pb 0.8714 -1.1557 -3.7440 0
M  V30 5 Pb 0.6699 -0.0351 -3.4053 0
M  V30 6 Pd -1.6461 -2.9408 4.7647 0
M  V30 7 Pb -0.6775 -2.9085 4.8048 0
M  V30 8 Pb -1.6622 -2.0167 5.1453 0
M  V30 9 Pb -1.5918 -3.7860 4.2166 0
M  V30 10 Pb -2.6206 -2.9590 4.7201 0
M  V30 11 Pd -0.1599 -4.8621 -2.3563 0
M  V30 12 Pb -1.1607 -4.9015 -2.4190 0
M  V30 13 Pb 0.8599 -4.6410 -2.3137 0
M  V30 14 Pb -0.3109 -5.0512 -1.3912 0
M  V30 15 Pb -0.1007 -4.7131 -3.3373 0
M  V30 16 Pd 0.2953 3.3387 -0.2535 0
M  V30 17 Pb 0.3722 4.3372 -0.4369 0
M  V30 18 Pb 1.3107 3.0999 -0.4229 0
M  V30 19 Pb -0.6986 3.2164 -0.4972 0
M  V30 20 Pb 0.8284 3.8464 0.4179 0
M  V30 21 Pd 4.3936 -0.9024 -2.1824 0
M  V30 22 Pb 4.1677 -1.8868 -2.3704 0
M  V30 23 Pb 4.6960 -0.7832 -3.1321 0
M  V30 24 Pb 4.6885 -1.1307 -1.3097 0
M  V30 25 Pb 4.1961 0.1052 -1.9288 0
M  V30 26 Pd -0.8116 3.0239 3.8063 0
M  V30 27 Pb -1.1148 2.0761 4.0201 0
M  V30 28 Pb -0.1337 2.8227 4.5359 0
M  V30 29 Pb -1.3527 3.3205 2.9705 0
M  V30 30 Pb -0.4286 3.9291 3.7623 0
M  V30 31 Pd 3.5092 -1.7144 2.3059 0
M  V30 32 Pb 4.4748 -1.6639 2.2301 0
M  V30 33 Pb 2.6194 -1.9678 2.6112 0
M  V30 34 Pb 3.5562 -1.2778 3.2038 0
M  V30 35 Pb 3.4138 -2.0250 1.3614 0
M  V30 36 Pd -2.2793 4.2529 -2.0700 0
M  V30 37 Pb -1.9615 3.5129 -2.7435 0
M  V30 38 Pb -3.1332 3.8248 -1.7779 0
M  V30 39 Pb -1.8755 5.0506 -2.6114 0
M  V30 40 Pb -2.3107 4.6921 -1.1252 0
M  V30 41 Pd -4.8087 0.0350 -0.5966 0
M  V30 42 Pb -4.3999 -0.2304 0.2328 0
M  V30 43 Pb -4.3538 0.9654 -0.5716 0
M  V30 44 Pb -5.0619 -0.9138 -0.7395 0
M  V30 45 Pb -5.5541 0.2762 -1.2045 0
M  V30 46 Ag -3.8986 3.7855 -1.7356 0
M  V30 47 Fe -6.0715 2.8903 -1.9034 0
M  V30 48 Ag -6.1451 0.6096 -1.4745 0
M  V30 49 Ag -1.9154 -4.8600 -2.3226 0
M  V30 50 Fe -3.6632 -3.3901 -1.6407 0
M  V30 51 Ag -5.0978 -1.6500 -0.8915 0
M  V30 52 Ag -3.3267 -2.9008 4.5730 0
M  V30 53 Fe -4.2704 -2.1890 2.5559 0
M  V30 54 Ag -4.2560 -0.6030 0.8410 0
M  V30 55 Ag -1.5454 -4.3556 3.7438 0
M  V30 56 Fe -1.2019 -4.9368 1.4924 0
M  V30 57 Ag -0.5146 -5.2791 -0.7158 0
M  V30 58 Ag 0.4909 5.1070 -0.4292 0
M  V30 59 Fe -0.6450 7.0587 -1.0617 0
M  V30 60 Ag -1.6702 5.7802 -2.7417 0
M  V30 61 Ag 0.3938 2.5122 4.9689 0
M  V30 62 Fe 1.9923 0.7676 4.6844 0
M  V30 63 Ag 3.4341 -0.9190 3.8342 0
M  V30 64 Ba 1.6231 -4.5082 -2.3663 0
M  V30 65 Ga 2.7219 -3.4839 -2.4203 0
M  V30 66 Ba 3.9534 -2.6400 -2.4466 0
M  V30 67 Ba -1.7115 3.7670 2.4166 0
M  V30 68 Ga -1.9692 4.1923 0.9848 0
M  V30 69 Ba -2.4042 4.8065 -0.3392 0
M  V30 70 Ba 2.1909 -1.2322 -4.5648 0
M  V30 71 Ga 3.6325 -1.2907 -4.5902 0
M  V30 72 Ba 4.8260 -0.8976 -3.8502 0
M  V30 73 Ba 5.1778 -1.3119 -0.7880 0
M  V30 74 Ga 5.3380 -1.4817 0.6195 0
M  V30 75 Ba 5.1676 -1.6921 2.0326 0
M  V30 76 Ba 2.0601 2.9246 -0.6457 0
M  V30 77 Ga 2.9927 1.8396 -1.1684 0
M  V30 78 Ba 4.0268 0.8434 -1.7058 0
M  V30 79 Ba 2.7244 -1.3364 -2.0970 0
M  V30 80 Ga 3.0616 -1.7050 -0.7183 0
M  V30 81 Ba 3.5053 -2.1679 0.6144 0
M  V30 82 Ba 0.1171 0.4952 -3.6655 0
M  V30 83 Ga -0.7448 1.7258 -3.3286 0
M  V30 84 Ba -1.6888 2.9287 -3.2125 0
M  V30 85 Ba -1.6727 -1.3063 5.3703 0
M  V30 86 Ga -1.4006 0.0243 4.7691 0
M  V30 87 Ba -1.2774 1.4580 4.4563 0
M  V30 88 Ba 0.6816 -1.6173 -4.3139 0
M  V30 89 Ga 0.3073 -3.0434 -4.3171 0
M  V30 90 Ba -0.0604 -4.4502 -4.0294 0
M  V30 91 Ba 0.0230 -2.9252 4.8190 0
M  V30 92 Ga 0.9761 -2.4725 3.8371 0
M  V30 93 Ba 2.1844 -2.2057 3.1355 0
M  V30 94 Ba -1.4629 3.2208 -0.6015 0
M  V30 95 Ga -2.6883 2.3618 -0.5981 0
M  V30 96 Ba -4.0045 1.6587 -0.6266 0
M  V30 97 Ba 1.0246 4.3744 0.9199 0
M  V30 98 Ga 0.5576 4.5852 2.2874 0
M  V30 99 Ba -0.0437 4.5239 3.6129 0
M  V30 END ATOM
M  V30 BEGIN BOND
M  V30 1 1 1 2
M  V30 2 1 1 3
M  V30 3 1 1 4
M  V30 4 1 1 5
M  V30 5 1 6 7
M  V30 6 1 6 8
M  V30 7 1 6 9
M  V30 8 1 6 10
M  V30 9 1 11 12
M  V30 10 1 11 13
M  V30 11 1 11 14
M  V30 12 1 11 15
M  V30 13 1 16 17
M  V30 14 1 16 18
M  V30 15 1 16 19
M  V30 16 1 16 20
M  V30 17 1 21 22
M  V30 18 1 21 23
M  V30 19 1 21 24
M  V30 20 1 21 25
M  V30 21 1 26 27
M  V30 22 1 26 28
M  V30 23 1 26 29
M  V30 24 1 26 30
M  V30 25 1 31 32
M  V30 26 1 31 33
M  V30 27 1 31 34
M  V30 28 1 31 35
M  V30 29 1 36 37
M  V30 30 1 36 38
M  V30 31 1 36 39
M  V30 32 1 36 40
M  V30 33 1 41 42
M  V30 34 1 41 43
M  V30 35 1 41 44
M  V30 36 1 41 45
M  V30 37 1 46 47
M  V30 38 1 47 48
M  V30 39 1 49 50
M  V30 40 1 50 51
M  V30 41 1 52 53
M  V30 42 1 53 54
M  V30 43 1 55 56
M  V30 44 1 56 57
M  V30 45 1 58 59
M  V30 46 1 59 60
M  V30 47 1 61 62
M  V30 48 1 62 63
M  V30 49 1 64 65
M  V30 50 1 65 66
M  V30 51 1 67 68
M  V30 52 1 68 69
M  V30 53 1 70 71
M  V30 54 1 71 72
M  V30 55 1 73 74
M  V30 56 1 74 75
M  V30 57 1 76 77
M  V30 58 1 77 78
M  V30 59 1 79 80
M  V30 60 1 80 81
M  V30 61 1 82 83
M  V30 62 1 83 84
M  V30 63 1 85 86
M  V30 64 1 86 87
M  V30 65 1 88 89
M  V30 66 1 89 90
M  V30 67 1 91 92
M  V30 68 1 92 93
M  V30 69 1 94 95
M  V30 70 1 95 96
M  V30 71 1 97 98
M  V30 72 1 98 99
M  V30 73 1 2 70
M  V30 74 1 3 79
M  V30 75 1 4 88
M  V30 76 1 5 82
M  V30 77 1 7 91
M  V30 78 1 8 85
M  V30 79 1 9 55
M  V30 80 1 10 52
M  V30 81 1 12 49
M  V30 82 1 13 64
M  V30 83 1 14 57
M  V30 84 1 15 90
M  V30 85 1 17 58
M  V30 86 1 18 76
M  V30 87 1 19 94
M  V30 88 1 20 97
M  V30 89 1 22 66
M  V30 90 1 23 72
M  V30 91 1 24 73
M  V30 92 1 25 78
M  V30 93 1 27 87
M  V30 94 1 28 61
M  V30 95 1 29 67
M  V30 96 1 30 99
M  V30 97 1 32 75
M  V30 98 1 33 93
M  V30 99 1 34 63
M  V30 100 1 35 81
M  V30 101 1 37 84
M  V30 102 1 38 46
M  V30 103 1 39 60
M  V30 104 1 40 69
M  V30 105 1 42 54
M  V30 106 1 43 96
M  V30 107 1 44 51
M  V30 108 1 45 48
M  V30 END BOND
M  V30 END CTAB
M  END

$$$$
