
     RDKit          3D

  0  0  0  0  0  0  0  0  0  0999 V3000
M  V30 BEGIN CTAB
M  V30 COUNTS 99 108 0 0 0
M  V30 BEGIN ATOM
M  V30 1 Pd -1.3031 1.6465 4.0357 0
M  V30 2 Pb -2.2651 1.8200 3.8216 0
M  V30 3 Pb -0.3421 1.5156 4.2820 0
M  V30 4 Pb -1.0326 2.5370 3.6663 0
M  V30 5 Pb -1.5634 0.7444 4.3872 0
M  V30 6 Pd 6.0842 -4.7510 1.2415 0
M  V30 7 Pb 5.6603 -4.6254 0.3409 0
M  V30 8 Pb 6.5379 -4.8996 2.1167 0
M  V30 9 Pb 5.6157 -5.6212 1.3772 0
M  V30 10 Pb 6.4803 -3.8299 1.2248 0
M  V30 11 Pd -5.2862 0.1527 -4.6176 0
M  V30 12 Pb -5.9412 -0.0513 -3.8919 0
M  V30 13 Pb -4.7763 -0.6778 -4.3994 0
M  V30 14 Pb -4.6202 0.3480 -5.3377 0
M  V30 15 Pb -5.7676 1.0173 -4.7753 0
M  V30 16 Pd 1.0724 3.6396 -5.6985 0
M  V30 17 Pb 0.5590 3.0228 -6.2905 0
M  V30 18 Pb 0.6358 4.4081 -6.1519 0
M  V30 19 Pb 1.5353 2.8543 -5.2841 0
M  V30 20 Pb 1.4494 4.2783 -5.0014 0
M  V30 21 Pd 1.3487 -3.4720 -2.2293 0
M  V30 22 Pb 2.2983 -3.7405 -2.0389 0
M  V30 23 Pb 0.4083 -3.2774 -2.5117 0
M  V30 24 Pb 1.7106 -2.6673 -2.7035 0
M  V30 25 Pb 0.9586 -4.2296 -1.7056 0
M  V30 26 Pd -0.7130 7.2174 -1.5247 0
M  V30 27 Pb -0.9623 7.6597 -2.3786 0
M  V30 28 Pb -1.6180 7.4374 -1.1667 0
M  V30 29 Pb -0.4775 6.7983 -0.6468 0
M  V30 30 Pb 0.1410 6.8753 -1.9618 0
M  V30 31 Pd -6.9064 3.3087 -0.9865 0
M  V30 32 Pb -6.7178 3.1280 -0.0223 0
M  V30 33 Pb -6.5828 4.2458 -0.8563 0
M  V30 34 Pb -7.0238 3.4514 -1.9713 0
M  V30 35 Pb -7.1982 2.3626 -1.1124 0
M  V30 36 Pd 0.0095 -5.9091 4.6727 0
M  V30 37 Pb -0.3866 -6.0975 3.7767 0
M  V30 38 Pb 0.5074 -5.6464 5.4979 0
M  V30 39 Pb 0.7300 -6.5454 4.4032 0
M  V30 40 Pb -0.6641 -5.1983 4.8778 0
M  V30 41 Pd 5.7226 -1.8250 5.1764 0
M  V30 42 Pb 6.2934 -2.6400 5.1861 0
M  V30 43 Pb 5.1288 -1.0218 5.1579 0
M  V30 44 Pb 5.1786 -2.2094 5.9208 0
M  V30 45 Pb 6.2006 -1.5302 4.3445 0
M  V30 46 Ag -2.9917 1.9515 3.6863 0
M  V30 47 Fe -4.7738 2.4667 2.2035 0
M  V30 48 Ag -6.5272 2.9829 0.6873 0
M  V30 49 Ag 0.5819 -4.7359 -1.2991 0
M  V30 50 Fe -0.0435 -5.5465 0.8435 0
M  V30 51 Ag -0.5529 -6.2308 3.0594 0
M  V30 52 Ag 1.8954 2.2516 -5.0166 0
M  V30 53 Fe 1.9103 0.0975 -4.0124 0
M  V30 54 Ag 2.0200 -2.0568 -3.0145 0
M  V30 55 Ag 0.2963 5.0285 -6.3673 0
M  V30 56 Fe -0.5979 6.8004 -5.1061 0
M  V30 57 Ag -1.0955 7.8732 -3.0736 0
M  V30 58 Ag -4.0886 0.4703 -5.8525 0
M  V30 59 Fe -2.0038 1.4810 -6.3684 0
M  V30 60 Ag 0.0781 2.5832 -6.6566 0
M  V30 61 Ag 5.2233 -6.2174 1.5995 0
M  V30 62 Fe 3.2752 -6.7707 2.8351 0
M  V30 63 Ag 1.2761 -6.9568 4.0990 0
M  V30 64 Ag -0.7769 3.1905 3.3980 0
M  V30 65 Fe -0.5755 4.8322 1.6918 0
M  V30 66 Ag -0.3289 6.5156 0.0329 0
M  V30 67 Ag -1.7884 0.0690 4.6315 0
M  V30 68 Fe -1.4756 -2.2780 4.8421 0
M  V30 69 Ag -1.1190 -4.6207 5.0294 0
M  V30 70 Ag 0.9315 -5.3730 6.0511 0
M  V30 71 Fe 2.8209 -3.9835 6.4143 0
M  V30 72 Ag 4.7225 -2.5637 6.3972 0
M  V30 73 Ag 0.3862 1.5006 4.4644 0
M  V30 74 Fe 2.5086 0.4878 4.7957 0
M  V30 75 Ag 4.6691 -0.4304 5.1564 0
M  V30 76 Ag -2.3311 7.5131 -0.9541 0
M  V30 77 Fe -4.3752 6.3166 -0.7997 0
M  V30 78 Ag -6.3005 4.9297 -0.7340 0
M  V30 79 Ag -4.3747 -1.2819 -4.2139 0
M  V30 80 Fe -2.3152 -2.2056 -3.4739 0
M  V30 81 Ag -0.3074 -3.2389 -2.7371 0
M  V30 82 Ba 5.3952 -4.5558 -0.3604 0
M  V30 83 Ga 4.1578 -4.2312 -1.1042 0
M  V30 84 Ba 3.0269 -3.9358 -2.0112 0
M  V30 85 Ba -6.1327 1.6724 -4.8336 0
M  V30 86 Ga -6.6229 2.6166 -3.8068 0
M  V30 87 Ba -7.0812 3.5071 -2.7193 0
M  V30 88 Ba 6.7484 -3.1304 1.3055 0
M  V30 89 Ga 6.6724 -2.2140 2.4668 0
M  V30 90 Ba 6.5360 -1.3827 3.6852 0
M  V30 91 Ba 6.8744 -4.9916 2.7770 0
M  V30 92 Ga 6.8331 -4.1729 3.9947 0
M  V30 93 Ba 6.6986 -3.2629 5.1383 0
M  V30 94 Ba -6.4320 -0.1739 -3.3402 0
M  V30 95 Ga -6.9387 0.7021 -2.2711 0
M  V30 96 Ba -7.3873 1.6500 -1.2380 0
M  V30 97 Ba 1.7119 4.7633 -4.4664 0
M  V30 98 Ga 1.1926 5.6741 -3.3958 0
M  V30 99 Ba 0.7774 6.6108 -2.3023 0
M  V30 END ATOM
M  V30 BEGIN BOND
M  V30 1 1 1 2
M  V30 2 1 1 3
M  V30 3 1 1 4
M  V30 4 1 1 5
M  V30 5 1 6 7
M  V30 6 1 6 8
M  V30 7 1 6 9
M  V30 8 1 6 10
M  V30 9 1 11 12
M  V30 10 1 11 13
M  V30 11 1 11 14
M  V30 12 1 11 15
M  V30 13 1 16 17
M  V30 14 1 16 18
M  V30 15 1 16 19
M  V30 16 1 16 20
M  V30 17 1 21 22
M  V30 18 1 21 23
M  V30 19 1 21 24
M  V30 20 1 21 25
M  V30 21 1 26 27
M  V30 22 1 26 28
M  V30 23 1 26 29
M  V30 24 1 26 30
M  V30 25 1 31 32
M  V30 26 1 31 33
M  V30 27 1 31 34
M  V30 28 1 31 35
M  V30 29 1 36 37
M  V30 30 1 36 38
M  V30 31 1 36 39
M  V30 32 1 36 40
M  V30 33 1 41 42
M  V30 34 1 41 43
M  V30 35 1 41 44
M  V30 36 1 41 45
M  V30 37 1 46 47
M  V30 38 1 47 48
M  V30 39 1 49 50
M  V30 40 1 50 51
M  V30 41 1 52 53
M  V30 42 1 53 54
M  V30 43 1 55 56
M  V30 44 1 56 57
M  V30 45 1 58 59
M  V30 46 1 59 60
M  V30 47 1 61 62
M  V30 48 1 62 63
M  V30 49 1 64 65
M  V30 50 1 65 66
M  V30 51 1 67 68
M  V30 52 1 68 69
M  V30 53 1 70 71
M  V30 54 1 71 72
M  V30 55 1 73 74
M  V30 56 1 74 75
M  V30 57 1 76 77
M  V30 58 1 77 78
M  V30 59 1 79 80
M  V30 60 1 80 81
M  V30 61 1 82 83
M  V30 62 1 83 84
M  V30 63 1 85 86
M  V30 64 1 86 87
M  V30 65 1 88 89
M  V30 66 1 89 90
M  V30 67 1 91 92
M  V30 68 1 92 93
M  V30 69 1 94 95
M  V30 70 1 95 96
M  V30 71 1 97 98
M  V30 72 1 98 99
M  V30 73 1 2 46
M  V30 74 1 3 73
M  V30 75 1 4 64
M  V30 76 1 5 67
M  V30 77 1 7 82
M  V30 78 1 8 91
M  V30 79 1 9 61
M  V30 80 1 10 88
M  V30 81 1 12 94
M  V30 82 1 13 79
M  V30 83 1 14 58
M  V30 84 1 15 85
M  V30 85 1 17 60
M  V30 86 1 18 55
M  V30 87 1 19 52
M  V30 88 1 20 97
M  V30 89 1 22 84
M  V30 90 1 23 81
M  V30 91 1 24 54
M  V30 92 1 25 49
M  V30 93 1 27 57
M  V30 94 1 28 76
M  V30 95 1 29 66
M  V30 96 1 30 99
M  V30 97 1 32 48
M  V30 98 1 33 78
M  V30 99 1 34 87
M  V30 100 1 35 96
M  V30 101 1 37 51
M  V30 102 1 38 70
M  V30 103 1 39 63
M  V30 104 1 40 69
M  V30 105 1 42 93
M  V30 106 1 43 75
M  V30 107 1 44 72
M  V30 108 1 45 90
M  V30 END BOND
M  V30 END CTAB
M  END

$$$$
