
     RDKit          3D

  0  0  0  0  0  0  0  0  0  0999 V3000
M  V30 BEGIN CTAB
M  V30 COUNTS 99 108 0 0 0
M  V30 BEGIN ATOM
M  V30 1 Pd -0.5261 -4.2532 3.4442 0
M  V30 2 Pb -0.8358 -3.4174 2.9881 0
M  V30 3 Pb -1.2914 -4.7913 3.0833 0
M  V30 4 Pb -0.1607 -5.0946 3.8406 0
M  V30 5 Pb 0.2037 -3.7067 3.8555 0
M  V30 6 Pd -0.3573 -8.5500 0.9475 0
M  V30 7 Pb 0.5708 -8.7045 0.5777 0
M  V30 8 Pb 0.0063 -8.4200 1.8701 0
M  V30 9 Pb -1.2388 -8.2169 1.2734 0
M  V30 10 Pb -0.7196 -8.6413 0.0240 0
M  V30 11 Pd 0.0667 2.6501 -4.6697 0
M  V30 12 Pb -0.8876 2.7563 -4.9592 0
M  V30 13 Pb 0.9943 2.5516 -4.2989 0
M  V30 14 Pb 0.1075 3.6271 -4.4685 0
M  V30 15 Pb 0.0215 1.6752 -4.8905 0
M  V30 16 Pd -1.9815 7.8203 0.3009 0
M  V30 17 Pb -2.4452 7.7541 1.1812 0
M  V30 18 Pb -2.7669 7.4040 -0.1600 0
M  V30 19 Pb -1.1851 8.1966 0.7792 0
M  V30 20 Pb -1.4891 7.8082 -0.5656 0
M  V30 21 Pd -0.6134 -1.5952 -1.7156 0
M  V30 22 Pb -1.6029 -1.4949 -1.7801 0
M  V30 23 Pb 0.3850 -1.6552 -1.7178 0
M  V30 24 Pb -0.5437 -1.5599 -2.7103 0
M  V30 25 Pb -0.7125 -1.5553 -0.7163 0
M  V30 26 Pd 3.2570 -5.4391 -1.9302 0
M  V30 27 Pb 3.2234 -6.3787 -1.5528 0
M  V30 28 Pb 3.8470 -5.1105 -1.1996 0
M  V30 29 Pb 2.6398 -5.7281 -2.6568 0
M  V30 30 Pb 3.2131 -4.4787 -2.1978 0
M  V30 31 Pd -3.9865 2.7304 -1.6413 0
M  V30 32 Pb -3.9976 1.7371 -1.7578 0
M  V30 33 Pb -3.8042 2.5896 -0.6671 0
M  V30 34 Pb -4.0360 2.8447 -2.6346 0
M  V30 35 Pb -4.0976 3.7225 -1.5248 0
M  V30 36 Pd 3.9994 1.1613 1.6802 0
M  V30 37 Pb 3.7957 2.0902 1.9944 0
M  V30 38 Pb 4.1077 1.4784 0.7344 0
M  V30 39 Pb 3.8030 0.7764 2.5788 0
M  V30 40 Pb 4.2889 0.2381 1.4308 0
M  V30 41 Pd 0.2210 5.3506 3.6584 0
M  V30 42 Pb 0.5831 6.2718 3.5316 0
M  V30 43 Pb -0.6738 5.7543 3.8437 0
M  V30 44 Pb -0.2322 4.4629 3.6264 0
M  V30 45 Pb 1.1306 4.9868 3.4465 0
M  V30 46 Ag 0.1299 4.3579 -4.3089 0
M  V30 47 Fe -0.4589 6.1039 -2.8156 0
M  V30 48 Ag -1.1301 7.7194 -1.2141 0
M  V30 49 Ag -0.8561 -8.6008 -0.7040 0
M  V30 50 Fe 0.3371 -7.4272 -2.3620 0
M  V30 51 Ag 2.0999 -6.0316 -3.0650 0
M  V30 52 Ag -3.5783 2.4433 0.0345 0
M  V30 53 Fe -2.1660 3.0523 1.8443 0
M  V30 54 Ag -0.6840 3.8794 3.5053 0
M  V30 55 Ag 0.7160 -3.2473 4.1545 0
M  V30 56 Fe 2.2011 -1.4302 3.7981 0
M  V30 57 Ag 3.6082 0.3787 3.1808 0
M  V30 58 Ag 4.2514 -4.7463 -0.6907 0
M  V30 59 Fe 4.4344 -2.6237 0.3525 0
M  V30 60 Ag 4.5319 -0.4640 1.3298 0
M  V30 61 Ag 1.6737 2.5078 -3.9750 0
M  V30 62 Fe 2.9476 2.1002 -2.0068 0
M  V30 63 Ag 4.1408 1.6749 0.0075 0
M  V30 64 Ba 3.7240 2.7913 2.2550 0
M  V30 65 Ga 2.7135 3.7441 2.7582 0
M  V30 66 Ba 1.8453 4.8170 3.2845 0
M  V30 67 Ba -1.8586 -5.2315 2.8564 0
M  V30 68 Ga -1.9124 -6.5460 2.1878 0
M  V30 69 Ba -1.8486 -7.8565 1.5127 0
M  V30 70 Ba -0.5979 8.4376 1.1830 0
M  V30 71 Ga 0.1449 7.7716 2.2703 0
M  V30 72 Ba 0.7778 6.9662 3.3322 0
M  V30 73 Ba 0.1140 -5.7513 4.0743 0
M  V30 74 Ga 0.2079 -7.0417 3.3672 0
M  V30 75 Ba 0.2490 -8.2786 2.5656 0
M  V30 76 Ba 1.1242 -1.6725 -1.8512 0
M  V30 77 Ga 2.1552 -2.7070 -2.0628 0
M  V30 78 Ba 3.1942 -3.7337 -2.2735 0
M  V30 79 Ba 1.2687 -8.7743 0.2809 0
M  V30 80 Ga 2.2078 -7.9087 -0.4899 0
M  V30 81 Ba 3.1814 -7.0828 -1.2614 0
M  V30 82 Ba -1.6160 2.8413 -5.1297 0
M  V30 83 Ga -2.8336 2.8842 -4.2922 0
M  V30 84 Ba -3.9979 2.9147 -3.3818 0
M  V30 85 Ba -2.3397 -1.3926 -1.8437 0
M  V30 86 Ga -3.1966 -0.1944 -1.8367 0
M  V30 87 Ba -4.0675 0.9937 -1.8328 0
M  V30 88 Ba -0.0322 0.9464 -5.0624 0
M  V30 89 Ga -0.2488 -0.2843 -4.2807 0
M  V30 90 Ba -0.4664 -1.4823 -3.4501 0
M  V30 91 Ba -1.0085 -2.7628 2.6617 0
M  V30 92 Ga -0.9241 -2.1610 1.3126 0
M  V30 93 Ba -0.8824 -1.4556 0.0128 0
M  V30 94 Ba -2.7239 7.6477 1.8658 0
M  V30 95 Ga -2.1044 6.8826 2.9587 0
M  V30 96 Ba -1.3402 6.0845 3.9298 0
M  V30 97 Ba -3.3540 7.0953 -0.5125 0
M  V30 98 Ga -3.7613 5.7499 -0.9730 0
M  V30 99 Ba -4.2710 4.4558 -1.4759 0
M  V30 END ATOM
M  V30 BEGIN BOND
M  V30 1 1 1 2
M  V30 2 1 1 3
M  V30 3 1 1 4
M  V30 4 1 1 5
M  V30 5 1 6 7
M  V30 6 1 6 8
M  V30 7 1 6 9
M  V30 8 1 6 10
M  V30 9 1 11 12
M  V30 10 1 11 13
M  V30 11 1 11 14
M  V30 12 1 11 15
M  V30 13 1 16 17
M  V30 14 1 16 18
M  V30 15 1 16 19
M  V30 16 1 16 20
M  V30 17 1 21 22
M  V30 18 1 21 23
M  V30 19 1 21 24
M  V30 20 1 21 25
M  V30 21 1 26 27
M  V30 22 1 26 28
M  V30 23 1 26 29
M  V30 24 1 26 30
M  V30 25 1 31 32
M  V30 26 1 31 33
M  V30 27 1 31 34
M  V30 28 1 31 35
M  V30 29 1 36 37
M  V30 30 1 36 38
M  V30 31 1 36 39
M  V30 32 1 36 40
M  V30 33 1 41 42
M  V30 34 1 41 43
M  V30 35 1 41 44
M  V30 36 1 41 45
M  V30 37 1 46 47
M  V30 38 1 47 48
M  V30 39 1 49 50
M  V30 40 1 50 51
M  V30 41 1 52 53
M  V30 42 1 53 54
M  V30 43 1 55 56
M  V30 44 1 56 57
M  V30 45 1 58 59
M  V30 46 1 59 60
M  V30 47 1 61 62
M  V30 48 1 62 63
M  V30 49 1 64 65
M  V30 50 1 65 66
M  V30 51 1 67 68
M  V30 52 1 68 69
M  V30 53 1 70 71
M  V30 54 1 71 72
M  V30 55 1 73 74
M  V30 56 1 74 75
M  V30 57 1 76 77
M  V30 58 1 77 78
M  V30 59 1 79 80
M  V30 60 1 80 81
M  V30 61 1 82 83
M  V30 62 1 83 84
M  V30 63 1 85 86
M  V30 64 1 86 87
M  V30 65 1 88 89
M  V30 66 1 89 90
M  V30 67 1 91 92
M  V30 68 1 92 93
M  V30 69 1 94 95
M  V30 70 1 95 96
M  V30 71 1 97 98
M  V30 72 1 98 99
M  V30 73 1 2 91
M  V30 74 1 3 67
M  V30 75 1 4 73
M  V30 76 1 5 55
M  V30 77 1 7 79
M  V30 78 1 8 75
M  V30 79 1 9 69
M  V30 80 1 10 49
M  V30 81 1 12 82
M  V30 82 1 13 61
M  V30 83 1 14 46
M  V30 84 1 15 88
M  V30 85 1 17 94
M  V30 86 1 18 97
M  V30 87 1 19 70
M  V30 88 1 20 48
M  V30 89 1 22 85
M  V30 90 1 23 76
M  V30 91 1 24 90
M  V30 92 1 25 93
M  V30 93 1 27 81
M  V30 94 1 28 58
M  V30 95 1 29 51
M  V30 96 1 30 78
M  V30 97 1 32 87
M  V30 98 1 33 52
M  V30 99 1 34 84
M  V30 100 1 35 99
M  V30 101 1 37 64
M  V30 102 1 38 63
M  V30 103 1 39 57
M  V30 104 1 40 60
M  V30 105 1 42 72
M  V30 106 1 43 96
M  V30 107 1 44 54
M  V30 108 1 45 66
M  V30 END BOND
M  V30 END CTAB
M  END

$$$$
