
     RDKit          3D

  0  0  0  0  0  0  0  0  0  0999 V3000
M  V30 BEGIN CTAB
M  V30 COUNTS 99 108 0 0 0
M  V30 BEGIN ATOM
M  V30 1 Pd 2.8868 2.9773 3.4143 0
M  V30 2 Pb 2.2654 3.6958 3.0950 0
M  V30 3 Pb 2.2412 2.7382 4.1406 0
M  V30 4 Pb 3.5680 3.2200 2.7219 0
M  V30 5 Pb 3.4738 2.2293 3.7209 0
M  V30 6 Pd -4.1297 -4.3963 4.1210 0
M  V30 7 Pb -4.1248 -3.9473 3.2261 0
M  V30 8 Pb -4.0587 -4.7897 5.0352 0
M  V30 9 Pb -3.6149 -5.1838 3.7998 0
M  V30 10 Pb -4.4978 -3.5636 4.5313 0
M  V30 11 Pd -4.0247 2.5129 -4.9948 0
M  V30 12 Pb -4.2925 2.9399 -4.1291 0
M  V30 13 Pb -4.3534 1.6191 -4.6896 0
M  V30 14 Pb -3.7048 2.0728 -5.8341 0
M  V30 15 Pb -3.6658 3.3966 -5.2942 0
M  V30 16 Pd 1.9723 -1.0182 -7.3768 0
M  V30 17 Pb 1.0654 -0.8510 -7.7612 0
M  V30 18 Pb 2.2824 -0.1349 -7.7208 0
M  V30 19 Pb 1.6507 -1.8692 -6.9615 0
M  V30 20 Pb 2.8548 -1.0859 -6.9083 0
M  V30 21 Pd -1.8810 -3.7174 -1.3874 0
M  V30 22 Pb -2.4121 -3.4521 -0.5789 0
M  V30 23 Pb -2.6553 -3.3861 -1.9248 0
M  V30 24 Pb -1.3863 -3.9530 -2.2249 0
M  V30 25 Pb -1.0578 -3.9637 -0.8721 0
M  V30 26 Pd 5.3705 4.0734 -3.8829 0
M  V30 27 Pb 5.0739 4.0584 -4.8352 0
M  V30 28 Pb 4.9408 4.9648 -3.7536 0
M  V30 29 Pb 5.6129 4.0557 -2.9135 0
M  V30 30 Pb 5.6743 3.1290 -4.0185 0
M  V30 31 Pd -1.4798 6.1103 -2.2171 0
M  V30 32 Pb -1.2026 6.0947 -1.2544 0
M  V30 33 Pb -0.6016 6.5329 -2.4401 0
M  V30 34 Pb -1.7396 6.1142 -3.1830 0
M  V30 35 Pb -2.3485 5.6567 -2.0092 0
M  V30 36 Pd 2.6870 -4.4175 4.7928 0
M  V30 37 Pb 2.7361 -4.4601 3.7971 0
M  V30 38 Pb 2.5342 -4.3242 5.7786 0
M  V30 39 Pb 2.0447 -5.1755 4.7111 0
M  V30 40 Pb 3.3041 -3.6321 4.8197 0
M  V30 41 Pd -1.3829 -2.2204 7.4782 0
M  V30 42 Pb -1.8176 -3.1068 7.6323 0
M  V30 43 Pb -0.9802 -1.3178 7.3189 0
M  V30 44 Pb -0.4965 -2.6030 7.7539 0
M  V30 45 Pb -2.2714 -1.8714 7.1698 0
M  V30 46 Ag 1.7714 4.2142 2.8645 0
M  V30 47 Fe 0.4054 5.1540 1.1608 0
M  V30 48 Ag -0.9608 6.0947 -0.5424 0
M  V30 49 Ag -0.3888 -4.1126 -0.5617 0
M  V30 50 Fe 1.1486 -4.3122 1.2387 0
M  V30 51 Ag 2.6688 -4.5119 3.0535 0
M  V30 52 Ag 1.3914 -2.4803 -6.6126 0
M  V30 53 Fe 0.1948 -3.3434 -4.7509 0
M  V30 54 Ag -1.0142 -4.1141 -2.8569 0
M  V30 55 Ag 2.5483 0.5443 -7.8816 0
M  V30 56 Fe 3.6860 2.3603 -6.8675 0
M  V30 57 Ag 4.8190 3.9567 -5.5301 0
M  V30 58 Ag 3.5009 -1.0175 -6.5300 0
M  V30 59 Fe 4.7800 0.5794 -5.3195 0
M  V30 60 Ag 5.7929 2.4053 -4.1832 0
M  V30 61 Ag -3.4318 1.7046 -6.4280 0
M  V30 62 Fe -1.5815 0.5037 -7.3073 0
M  V30 63 Ag 0.3773 -0.6555 -7.9836 0
M  V30 64 Ag -3.1097 -5.7217 3.7059 0
M  V30 65 Fe -0.7777 -5.9385 4.0586 0
M  V30 66 Ag 1.5289 -5.6867 4.5362 0
M  V30 67 Ag 4.1108 3.3896 2.2309 0
M  V30 68 Fe 4.9298 3.7183 0.0255 0
M  V30 69 Ag 5.7545 4.0492 -2.1775 0
M  V30 70 Ag 3.8765 1.6406 3.9494 0
M  V30 71 Fe 3.8799 -0.6887 4.4068 0
M  V30 72 Ag 3.7377 -3.0213 4.8237 0
M  V30 73 Ag 1.7871 2.5566 4.7102 0
M  V30 74 Fe 0.5404 0.9475 5.9359 0
M  V30 75 Ag -0.7207 -0.6238 7.1955 0
M  V30 76 Ag 4.5318 5.5824 -3.6490 0
M  V30 77 Fe 2.3350 6.3157 -3.1300 0
M  V30 78 Ag 0.0755 6.8124 -2.5991 0
M  V30 79 Ag -4.5601 0.9281 -4.4838 0
M  V30 80 Fe -3.9585 -1.1022 -3.4095 0
M  V30 81 Ag -3.2189 -3.0681 -2.3022 0
M  V30 82 Ba -4.1236 -3.5347 2.5982 0
M  V30 83 Ga -3.4552 -3.4426 1.2833 0
M  V30 84 Ba -2.8949 -3.1939 -0.0613 0
M  V30 85 Ba -3.3850 4.0648 -5.4860 0
M  V30 86 Ga -2.6628 5.0972 -4.7193 0
M  V30 87 Ba -1.9448 6.0950 -3.9044 0
M  V30 88 Ba -4.6708 -2.9334 4.8971 0
M  V30 89 Ga -3.8565 -2.2392 5.9148 0
M  V30 90 Ba -2.9444 -1.6488 6.9154 0
M  V30 91 Ba -3.9333 -5.0420 5.7277 0
M  V30 92 Ga -3.0763 -4.4544 6.7705 0
M  V30 93 Ba -2.1886 -3.7526 7.7124 0
M  V30 94 Ba -4.4553 3.2762 -3.4767 0
M  V30 95 Ga -3.7480 4.2885 -2.6650 0
M  V30 96 Ba -3.0007 5.3018 -1.8911 0
M  V30 97 Ba 2.3942 -4.2078 6.5084 0
M  V30 98 Ga 1.2795 -3.5652 7.2389 0
M  V30 99 Ba 0.1576 -2.9193 7.9553 0
M  V30 END ATOM
M  V30 BEGIN BOND
M  V30 1 1 1 2
M  V30 2 1 1 3
M  V30 3 1 1 4
M  V30 4 1 1 5
M  V30 5 1 6 7
M  V30 6 1 6 8
M  V30 7 1 6 9
M  V30 8 1 6 10
M  V30 9 1 11 12
M  V30 10 1 11 13
M  V30 11 1 11 14
M  V30 12 1 11 15
M  V30 13 1 16 17
M  V30 14 1 16 18
M  V30 15 1 16 19
M  V30 16 1 16 20
M  V30 17 1 21 22
M  V30 18 1 21 23
M  V30 19 1 21 24
M  V30 20 1 21 25
M  V30 21 1 26 27
M  V30 22 1 26 28
M  V30 23 1 26 29
M  V30 24 1 26 30
M  V30 25 1 31 32
M  V30 26 1 31 33
M  V30 27 1 31 34
M  V30 28 1 31 35
M  V30 29 1 36 37
M  V30 30 1 36 38
M  V30 31 1 36 39
M  V30 32 1 36 40
M  V30 33 1 41 42
M  V30 34 1 41 43
M  V30 35 1 41 44
M  V30 36 1 41 45
M  V30 37 1 46 47
M  V30 38 1 47 48
M  V30 39 1 49 50
M  V30 40 1 50 51
M  V30 41 1 52 53
M  V30 42 1 53 54
M  V30 43 1 55 56
M  V30 44 1 56 57
M  V30 45 1 58 59
M  V30 46 1 59 60
M  V30 47 1 61 62
M  V30 48 1 62 63
M  V30 49 1 64 65
M  V30 50 1 65 66
M  V30 51 1 67 68
M  V30 52 1 68 69
M  V30 53 1 70 71
M  V30 54 1 71 72
M  V30 55 1 73 74
M  V30 56 1 74 75
M  V30 57 1 76 77
M  V30 58 1 77 78
M  V30 59 1 79 80
M  V30 60 1 80 81
M  V30 61 1 82 83
M  V30 62 1 83 84
M  V30 63 1 85 86
M  V30 64 1 86 87
M  V30 65 1 88 89
M  V30 66 1 89 90
M  V30 67 1 91 92
M  V30 68 1 92 93
M  V30 69 1 94 95
M  V30 70 1 95 96
M  V30 71 1 97 98
M  V30 72 1 98 99
M  V30 73 1 2 46
M  V30 74 1 3 73
M  V30 75 1 4 67
M  V30 76 1 5 70
M  V30 77 1 7 82
M  V30 78 1 8 91
M  V30 79 1 9 64
M  V30 80 1 10 88
M  V30 81 1 12 94
M  V30 82 1 13 79
M  V30 83 1 14 61
M  V30 84 1 15 85
M  V30 85 1 17 63
M  V30 86 1 18 55
M  V30 87 1 19 52
M  V30 88 1 20 58
M  V30 89 1 22 84
M  V30 90 1 23 81
M  V30 91 1 24 54
M  V30 92 1 25 49
M  V30 93 1 27 57
M  V30 94 1 28 76
M  V30 95 1 29 69
M  V30 96 1 30 60
M  V30 97 1 32 48
M  V30 98 1 33 78
M  V30 99 1 34 87
M  V30 100 1 35 96
M  V30 101 1 37 51
M  V30 102 1 38 97
M  V30 103 1 39 66
M  V30 104 1 40 72
M  V30 105 1 42 93
M  V30 106 1 43 75
M  V30 107 1 44 99
M  V30 108 1 45 90
M  V30 END BOND
M  V30 END CTAB
M  END

$$$$
