
     RDKit          3D

  0  0  0  0  0  0  0  0  0  0999 V3000
M  V30 BEGIN CTAB
M  V30 COUNTS 99 108 0 0 0
M  V30 BEGIN ATOM
M  V30 1 Pd 1.0308 -3.6032 -0.9307 0
M  V30 2 Pb 1.1806 -4.2006 -1.7206 0
M  V30 3 Pb 0.9593 -2.9838 -0.1485 0
M  V30 4 Pb 1.7988 -4.0354 -0.4602 0
M  V30 5 Pb 0.2667 -3.1551 -1.4014 0
M  V30 6 Pd -4.6051 0.1060 7.0141 0
M  V30 7 Pb -4.5799 0.9543 6.4838 0
M  V30 8 Pb -4.5869 -0.7690 7.4976 0
M  V30 9 Pb -5.3111 -0.2322 6.3970 0
M  V30 10 Pb -3.8023 0.3811 7.5423 0
M  V30 11 Pd 1.1217 3.8322 -5.8538 0
M  V30 12 Pb 0.8381 2.9441 -6.2093 0
M  V30 13 Pb 0.1741 4.0633 -5.6533 0
M  V30 14 Pb 1.3966 4.6963 -5.4315 0
M  V30 15 Pb 2.0659 3.5240 -5.9778 0
M  V30 16 Pd 1.8513 4.7236 -0.8511 0
M  V30 17 Pb 1.8164 5.3958 -1.5916 0
M  V30 18 Pb 2.6639 4.3224 -1.2719 0
M  V30 19 Pb 1.0461 5.1250 -0.4062 0
M  V30 20 Pb 1.9318 4.0172 -0.1461 0
M  V30 21 Pd -3.5980 3.6716 0.0594 0
M  V30 22 Pb -3.7907 3.5602 1.0376 0
M  V30 23 Pb -3.4503 3.8498 -0.9115 0
M  V30 24 Pb -2.9116 4.3663 0.2873 0
M  V30 25 Pb -4.2698 2.9757 -0.2051 0
M  V30 26 Pd 5.5180 -1.5879 -0.4944 0
M  V30 27 Pb 5.6874 -0.7307 -0.9764 0
M  V30 28 Pb 6.0270 -2.1071 -1.1797 0
M  V30 29 Pb 5.2770 -2.4456 -0.0453 0
M  V30 30 Pb 4.9474 -1.0623 0.1397 0
M  V30 31 Pd 3.8946 -2.7675 -5.2080 0
M  V30 32 Pb 3.4250 -3.6051 -4.9244 0
M  V30 33 Pb 4.7389 -3.0539 -4.7544 0
M  V30 34 Pb 4.3043 -1.8851 -5.4475 0
M  V30 35 Pb 3.0606 -2.4402 -5.6466 0
M  V30 36 Pd -4.2330 -1.8614 -0.0067 0
M  V30 37 Pb -4.6903 -1.0656 -0.4063 0
M  V30 38 Pb -3.7763 -2.6224 0.4538 0
M  V30 39 Pb -4.8965 -1.8269 0.7398 0
M  V30 40 Pb -3.5618 -1.8874 -0.7506 0
M  V30 41 Pd -0.9255 -2.5661 6.3334 0
M  V30 42 Pb -1.5883 -2.9492 6.9737 0
M  V30 43 Pb -0.3598 -2.1331 5.6346 0
M  V30 44 Pb -1.1369 -3.2618 5.6489 0
M  V30 45 Pb -0.7968 -1.8026 6.9673 0
M  V30 46 Ag -4.5600 1.5692 6.0532 0
M  V30 47 Fe -4.2412 2.5273 3.9008 0
M  V30 48 Ag -3.9355 3.5506 1.7767 0
M  V30 49 Ag 3.2750 3.9859 -1.5446 0
M  V30 50 Fe 4.5878 2.0094 -1.5128 0
M  V30 51 Ag 5.7244 -0.0639 -1.3129 0
M  V30 52 Ag 2.7325 3.1842 -6.0454 0
M  V30 53 Fe 3.7666 1.0513 -5.8660 0
M  V30 54 Ag 4.5277 -1.1868 -5.6153 0
M  V30 55 Ag 0.6806 2.2456 -6.4238 0
M  V30 56 Fe 1.4515 0.0075 -6.2806 0
M  V30 57 Ag 2.4691 -2.1109 -5.9630 0
M  V30 58 Ag 2.0650 3.4487 0.3270 0
M  V30 59 Fe 3.2396 1.3946 0.5549 0
M  V30 60 Ag 4.4962 -0.6234 0.5513 0
M  V30 61 Ag -5.7538 -0.5006 5.8588 0
M  V30 62 Fe -5.6941 -1.1715 3.5841 0
M  V30 63 Ag -5.3772 -1.7783 1.3124 0
M  V30 64 Ag -3.4435 -3.1536 0.8650 0
M  V30 65 Fe -2.3601 -3.5764 2.9345 0
M  V30 66 Ag -1.3204 -3.6929 5.0653 0
M  V30 67 Ag 0.9847 -2.5377 0.4547 0
M  V30 68 Fe 0.5120 -2.1398 2.7475 0
M  V30 69 Ag -0.0133 -1.8335 5.0428 0
M  V30 70 Ag -0.5247 4.2001 -5.4317 0
M  V30 71 Fe -1.9907 4.1253 -3.5693 0
M  V30 72 Ag -3.3617 4.0060 -1.6379 0
M  V30 73 Ba 1.3402 -4.6376 -2.3112 0
M  V30 74 Ga 2.1805 -4.4452 -3.5111 0
M  V30 75 Ba 3.0320 -4.2027 -4.6939 0
M  V30 76 Ba -4.7632 2.4732 -0.4718 0
M  V30 77 Ga -4.8941 1.0030 -0.5507 0
M  V30 78 Ba -5.0643 -0.4618 -0.6514 0
M  V30 79 Ba 0.4587 5.4416 -0.0559 0
M  V30 80 Ga -0.9702 5.1426 0.1828 0
M  V30 81 Ba -2.4035 4.8964 0.4534 0
M  V30 82 Ba -3.1462 0.5004 7.8848 0
M  V30 83 Ga -1.9157 -0.2971 7.7224 0
M  V30 84 Ba -0.7948 -1.2102 7.4285 0
M  V30 85 Ba -4.4984 -1.4347 7.8305 0
M  V30 86 Ga -3.3639 -2.3641 7.6974 0
M  V30 87 Ba -2.1468 -3.1483 7.4295 0
M  V30 88 Ba 1.5516 5.3344 -5.0681 0
M  V30 89 Ga 1.6991 5.6365 -3.6308 0
M  V30 90 Ba 1.8346 5.8636 -2.1786 0
M  V30 91 Ba 2.3899 -4.3136 -0.0941 0
M  V30 92 Ga 3.7372 -3.7572 0.1115 0
M  V30 93 Ba 5.0454 -3.0953 0.2431 0
M  V30 94 Ba -0.2922 -2.8194 -1.7783 0
M  V30 95 Ga -1.6763 -2.3698 -1.5175 0
M  V30 96 Ba -3.0635 -1.9007 -1.3139 0
M  V30 97 Ba 6.3585 -2.5113 -1.7163 0
M  V30 98 Ga 5.9018 -2.8934 -3.0653 0
M  V30 99 Ba 5.3756 -3.2334 -4.4002 0
M  V30 END ATOM
M  V30 BEGIN BOND
M  V30 1 1 1 2
M  V30 2 1 1 3
M  V30 3 1 1 4
M  V30 4 1 1 5
M  V30 5 1 6 7
M  V30 6 1 6 8
M  V30 7 1 6 9
M  V30 8 1 6 10
M  V30 9 1 11 12
M  V30 10 1 11 13
M  V30 11 1 11 14
M  V30 12 1 11 15
M  V30 13 1 16 17
M  V30 14 1 16 18
M  V30 15 1 16 19
M  V30 16 1 16 20
M  V30 17 1 21 22
M  V30 18 1 21 23
M  V30 19 1 21 24
M  V30 20 1 21 25
M  V30 21 1 26 27
M  V30 22 1 26 28
M  V30 23 1 26 29
M  V30 24 1 26 30
M  V30 25 1 31 32
M  V30 26 1 31 33
M  V30 27 1 31 34
M  V30 28 1 31 35
M  V30 29 1 36 37
M  V30 30 1 36 38
M  V30 31 1 36 39
M  V30 32 1 36 40
M  V30 33 1 41 42
M  V30 34 1 41 43
M  V30 35 1 41 44
M  V30 36 1 41 45
M  V30 37 1 46 47
M  V30 38 1 47 48
M  V30 39 1 49 50
M  V30 40 1 50 51
M  V30 41 1 52 53
M  V30 42 1 53 54
M  V30 43 1 55 56
M  V30 44 1 56 57
M  V30 45 1 58 59
M  V30 46 1 59 60
M  V30 47 1 61 62
M  V30 48 1 62 63
M  V30 49 1 64 65
M  V30 50 1 65 66
M  V30 51 1 67 68
M  V30 52 1 68 69
M  V30 53 1 70 71
M  V30 54 1 71 72
M  V30 55 1 73 74
M  V30 56 1 74 75
M  V30 57 1 76 77
M  V30 58 1 77 78
M  V30 59 1 79 80
M  V30 60 1 80 81
M  V30 61 1 82 83
M  V30 62 1 83 84
M  V30 63 1 85 86
M  V30 64 1 86 87
M  V30 65 1 88 89
M  V30 66 1 89 90
M  V30 67 1 91 92
M  V30 68 1 92 93
M  V30 69 1 94 95
M  V30 70 1 95 96
M  V30 71 1 97 98
M  V30 72 1 98 99
M  V30 73 1 2 73
M  V30 74 1 3 67
M  V30 75 1 4 91
M  V30 76 1 5 94
M  V30 77 1 7 46
M  V30 78 1 8 85
M  V30 79 1 9 61
M  V30 80 1 10 82
M  V30 81 1 12 55
M  V30 82 1 13 70
M  V30 83 1 14 88
M  V30 84 1 15 52
M  V30 85 1 17 90
M  V30 86 1 18 49
M  V30 87 1 19 79
M  V30 88 1 20 58
M  V30 89 1 22 48
M  V30 90 1 23 72
M  V30 91 1 24 81
M  V30 92 1 25 76
M  V30 93 1 27 51
M  V30 94 1 28 97
M  V30 95 1 29 93
M  V30 96 1 30 60
M  V30 97 1 32 75
M  V30 98 1 33 99
M  V30 99 1 34 54
M  V30 100 1 35 57
M  V30 101 1 37 78
M  V30 102 1 38 64
M  V30 103 1 39 63
M  V30 104 1 40 96
M  V30 105 1 42 87
M  V30 106 1 43 69
M  V30 107 1 44 66
M  V30 108 1 45 84
M  V30 END BOND
M  V30 END CTAB
M  END

$$$$
