
     RDKit          3D

  0  0  0  0  0  0  0  0  0  0999 V3000
M  V30 BEGIN CTAB
M  V30 COUNTS 99 108 0 0 0
M  V30 BEGIN ATOM
M  V30 1 Pd 3.2958 -1.4121 4.0048 0
M  V30 2 Pb 3.2111 -0.6256 4.6198 0
M  V30 3 Pb 4.0230 -0.9541 3.4941 0
M  V30 4 Pb 2.5924 -1.8898 4.5251 0
M  V30 5 Pb 3.3602 -2.1977 3.3902 0
M  V30 6 Pd 4.1480 1.2484 -7.6392 0
M  V30 7 Pb 3.1731 1.3317 -7.8355 0
M  V30 8 Pb 4.1961 2.1788 -7.2869 0
M  V30 9 Pb 4.1142 0.2850 -7.8840 0
M  V30 10 Pb 5.0890 1.0896 -7.3091 0
M  V30 11 Pd -4.2746 5.0895 0.0308 0
M  V30 12 Pb -4.4113 5.1766 1.0120 0
M  V30 13 Pb -4.1513 4.8970 -0.9410 0
M  V30 14 Pb -5.2376 4.8557 -0.0657 0
M  V30 15 Pb -3.2896 5.1622 0.2083 0
M  V30 16 Pd -6.9558 -1.1200 2.0388 0
M  V30 17 Pb -7.3324 -0.2880 1.6346 0
M  V30 18 Pb -7.1100 -0.7557 2.9601 0
M  V30 19 Pb -6.7334 -1.4596 1.1226 0
M  V30 20 Pb -6.5718 -1.9444 2.4500 0
M  V30 21 Pd -2.6449 -0.6774 -4.5604 0
M  V30 22 Pb -2.0254 -0.3260 -5.2652 0
M  V30 23 Pb -3.0349 0.2418 -4.5179 0
M  V30 24 Pb -3.3255 -1.0332 -3.9137 0
M  V30 25 Pb -2.1894 -1.5702 -4.5463 0
M  V30 26 Pd -3.9586 -1.5300 6.2770 0
M  V30 27 Pb -4.8155 -1.0206 6.1765 0
M  V30 28 Pb -3.5533 -0.8404 6.8823 0
M  V30 29 Pb -3.1029 -2.0359 6.3385 0
M  V30 30 Pb -4.3287 -2.2318 5.6695 0
M  V30 31 Pd -0.4865 2.5555 5.6178 0
M  V30 32 Pb 0.4375 2.1911 5.7655 0
M  V30 33 Pb -0.8408 2.0928 6.4325 0
M  V30 34 Pb -0.2130 3.0236 4.7715 0
M  V30 35 Pb -1.3784 2.9809 5.4983 0
M  V30 36 Pd 3.9226 -4.3309 -3.1757 0
M  V30 37 Pb 2.9433 -4.4669 -3.3380 0
M  V30 38 Pb 4.8952 -4.1304 -3.0316 0
M  V30 39 Pb 4.0261 -4.1943 -4.1575 0
M  V30 40 Pb 3.8107 -4.4734 -2.1929 0
M  V30 41 Pd 6.9539 0.2411 -2.7181 0
M  V30 42 Pb 6.7705 1.2202 -2.7561 0
M  V30 43 Pb 6.8670 0.2633 -1.7220 0
M  V30 44 Pb 7.1129 -0.7504 -2.6958 0
M  V30 45 Pb 7.0479 0.2587 -3.7264 0
M  V30 46 Ag 2.4283 1.3275 -7.9099 0
M  V30 47 Fe 0.3948 0.6619 -6.8774 0
M  V30 48 Ag -1.6214 -0.0186 -5.8206 0
M  V30 49 Ag -1.8353 -2.2309 -4.4806 0
M  V30 50 Fe 0.1699 -3.4148 -3.9999 0
M  V30 51 Ag 2.2134 -4.5271 -3.5089 0
M  V30 52 Ag -6.5406 -1.7020 0.4371 0
M  V30 53 Fe -5.1815 -1.4879 -1.5031 0
M  V30 54 Ag -3.8582 -1.3351 -3.4736 0
M  V30 55 Ag -2.5739 5.1315 0.4453 0
M  V30 56 Fe -1.2247 4.3100 2.2275 0
M  V30 57 Ag -0.1082 3.3946 4.1216 0
M  V30 58 Ag 4.3308 2.7719 -6.8619 0
M  V30 59 Fe 5.4340 2.8333 -4.7770 0
M  V30 60 Ag 6.5695 1.9169 -2.9217 0
M  V30 61 Ag -4.4654 5.1528 1.7538 0
M  V30 62 Fe -3.3528 4.3064 3.6649 0
M  V30 63 Ag -2.0139 3.3468 5.3660 0
M  V30 64 Ag -5.9169 4.5494 -0.0720 0
M  V30 65 Fe -6.9221 2.5017 0.5732 0
M  V30 66 Ag -7.5740 0.3509 1.3286 0
M  V30 67 Ag 4.1189 -0.4564 -7.9454 0
M  V30 68 Fe 4.0986 -2.3720 -6.5527 0
M  V30 69 Ag 4.0655 -4.0594 -4.8906 0
M  V30 70 Ag 2.0666 -2.2502 4.9142 0
M  V30 71 Fe -0.1789 -2.3651 5.6654 0
M  V30 72 Ag -2.4445 -2.3855 6.3624 0
M  V30 73 Ag 3.3929 -2.7890 2.9307 0
M  V30 74 Fe 3.5673 -3.6851 0.7388 0
M  V30 75 Ag 3.7419 -4.5789 -1.4541 0
M  V30 76 Ag 4.5822 -0.6300 3.1141 0
M  V30 77 Fe 5.6822 -0.1676 1.0606 0
M  V30 78 Ag 6.8060 0.3121 -0.9759 0
M  V30 79 Ag -4.1145 4.6762 -1.6553 0
M  V30 80 Fe -3.6965 2.8551 -3.1198 0
M  V30 81 Ag -3.2528 0.9579 -4.4763 0
M  V30 82 Ba 3.1504 -0.0444 5.0930 0
M  V30 83 Ga 2.1175 0.9443 5.4710 0
M  V30 84 Ba 1.1437 1.9680 5.9076 0
M  V30 85 Ba -7.1851 -0.4822 3.6574 0
M  V30 86 Ga -6.3449 -0.5601 4.8717 0
M  V30 87 Ba -5.4694 -0.6684 6.0584 0
M  V30 88 Ba 5.7824 0.9227 -7.0460 0
M  V30 89 Ga 6.4278 0.6244 -5.7369 0
M  V30 90 Ba 7.1615 0.3124 -4.4786 0
M  V30 91 Ba -6.2769 -2.5428 2.7884 0
M  V30 92 Ga -5.4390 -2.6778 3.9922 0
M  V30 93 Ba -4.6028 -2.7499 5.2027 0
M  V30 94 Ba 5.6222 -3.9649 -2.9234 0
M  V30 95 Ga 6.4174 -2.7221 -2.8028 0
M  V30 96 Ba 7.2352 -1.4945 -2.6789 0
M  V30 97 Ba -3.1956 -0.3643 7.3440 0
M  V30 98 Ga -2.1839 0.7029 7.1858 0
M  V30 99 Ba -1.1729 1.7705 7.0253 0
M  V30 END ATOM
M  V30 BEGIN BOND
M  V30 1 1 1 2
M  V30 2 1 1 3
M  V30 3 1 1 4
M  V30 4 1 1 5
M  V30 5 1 6 7
M  V30 6 1 6 8
M  V30 7 1 6 9
M  V30 8 1 6 10
M  V30 9 1 11 12
M  V30 10 1 11 13
M  V30 11 1 11 14
M  V30 12 1 11 15
M  V30 13 1 16 17
M  V30 14 1 16 18
M  V30 15 1 16 19
M  V30 16 1 16 20
M  V30 17 1 21 22
M  V30 18 1 21 23
M  V30 19 1 21 24
M  V30 20 1 21 25
M  V30 21 1 26 27
M  V30 22 1 26 28
M  V30 23 1 26 29
M  V30 24 1 26 30
M  V30 25 1 31 32
M  V30 26 1 31 33
M  V30 27 1 31 34
M  V30 28 1 31 35
M  V30 29 1 36 37
M  V30 30 1 36 38
M  V30 31 1 36 39
M  V30 32 1 36 40
M  V30 33 1 41 42
M  V30 34 1 41 43
M  V30 35 1 41 44
M  V30 36 1 41 45
M  V30 37 1 46 47
M  V30 38 1 47 48
M  V30 39 1 49 50
M  V30 40 1 50 51
M  V30 41 1 52 53
M  V30 42 1 53 54
M  V30 43 1 55 56
M  V30 44 1 56 57
M  V30 45 1 58 59
M  V30 46 1 59 60
M  V30 47 1 61 62
M  V30 48 1 62 63
M  V30 49 1 64 65
M  V30 50 1 65 66
M  V30 51 1 67 68
M  V30 52 1 68 69
M  V30 53 1 70 71
M  V30 54 1 71 72
M  V30 55 1 73 74
M  V30 56 1 74 75
M  V30 57 1 76 77
M  V30 58 1 77 78
M  V30 59 1 79 80
M  V30 60 1 80 81
M  V30 61 1 82 83
M  V30 62 1 83 84
M  V30 63 1 85 86
M  V30 64 1 86 87
M  V30 65 1 88 89
M  V30 66 1 89 90
M  V30 67 1 91 92
M  V30 68 1 92 93
M  V30 69 1 94 95
M  V30 70 1 95 96
M  V30 71 1 97 98
M  V30 72 1 98 99
M  V30 73 1 2 82
M  V30 74 1 3 76
M  V30 75 1 4 70
M  V30 76 1 5 73
M  V30 77 1 7 46
M  V30 78 1 8 58
M  V30 79 1 9 67
M  V30 80 1 10 88
M  V30 81 1 12 61
M  V30 82 1 13 79
M  V30 83 1 14 64
M  V30 84 1 15 55
M  V30 85 1 17 66
M  V30 86 1 18 85
M  V30 87 1 19 52
M  V30 88 1 20 91
M  V30 89 1 22 48
M  V30 90 1 23 81
M  V30 91 1 24 54
M  V30 92 1 25 49
M  V30 93 1 27 87
M  V30 94 1 28 97
M  V30 95 1 29 72
M  V30 96 1 30 93
M  V30 97 1 32 84
M  V30 98 1 33 99
M  V30 99 1 34 57
M  V30 100 1 35 63
M  V30 101 1 37 51
M  V30 102 1 38 94
M  V30 103 1 39 69
M  V30 104 1 40 75
M  V30 105 1 42 60
M  V30 106 1 43 78
M  V30 107 1 44 96
M  V30 108 1 45 90
M  V30 END BOND
M  V30 END CTAB
M  END

$$$$
