
     RDKit          3D

  0  0  0  0  0  0  0  0  0  0999 V3000
M  V30 BEGIN CTAB
M  V30 COUNTS 99 108 0 0 0
M  V30 BEGIN ATOM
M  V30 1 Pd 3.5823 -3.9042 4.8698 0
M  V30 2 Pb 3.9237 -3.8682 3.9303 0
M  V30 3 Pb 3.2893 -3.8712 5.8272 0
M  V30 4 Pb 4.5292 -3.8792 5.1869 0
M  V30 5 Pb 2.6266 -3.9432 4.5658 0
M  V30 6 Pd 5.3343 -0.5673 7.9425 0
M  V30 7 Pb 5.9035 0.1124 7.4817 0
M  V30 8 Pb 5.9322 -1.2972 7.6220 0
M  V30 9 Pb 4.7011 -1.2639 8.2815 0
M  V30 10 Pb 4.7024 0.1625 8.1945 0
M  V30 11 Pd -2.8249 -3.8840 -4.3618 0
M  V30 12 Pb -2.0489 -3.5715 -4.9064 0
M  V30 13 Pb -3.5620 -4.0780 -3.7199 0
M  V30 14 Pb -3.4484 -3.4881 -5.0331 0
M  V30 15 Pb -2.1864 -4.2323 -3.6803 0
M  V30 16 Pd -4.1285 2.7265 -7.6155 0
M  V30 17 Pb -3.8394 3.6763 -7.5401 0
M  V30 18 Pb -3.1864 2.4779 -7.8422 0
M  V30 19 Pb -5.0226 2.9935 -7.2516 0
M  V30 20 Pb -4.4151 1.7701 -7.6447 0
M  V30 21 Pd 2.3871 -1.2683 0.2625 0
M  V30 22 Pb 1.5643 -0.7903 -0.0488 0
M  V30 23 Pb 2.8471 -0.4016 0.4744 0
M  V30 24 Pb 1.9377 -2.1252 0.0219 0
M  V30 25 Pb 3.1727 -1.8011 0.5718 0
M  V30 26 Pd 3.3977 2.3460 4.4999 0
M  V30 27 Pb 4.3748 2.3215 4.7173 0
M  V30 28 Pb 2.4154 2.3606 4.3243 0
M  V30 29 Pb 3.2091 2.4297 5.4782 0
M  V30 30 Pb 3.5883 2.2392 3.5215 0
M  V30 31 Pd -0.3536 0.9564 -4.3573 0
M  V30 32 Pb -0.4000 0.6406 -3.4066 0
M  V30 33 Pb -0.4152 1.8818 -3.9724 0
M  V30 34 Pb -0.2561 0.0306 -4.7356 0
M  V30 35 Pb -0.3513 1.2844 -5.3062 0
M  V30 36 Pd -3.2540 -1.0088 2.0814 0
M  V30 37 Pb -3.8269 -0.3003 1.6676 0
M  V30 38 Pb -3.7763 -1.7049 1.5895 0
M  V30 39 Pb -2.6599 -1.7188 2.4684 0
M  V30 40 Pb -2.7320 -0.2898 2.5361 0
M  V30 41 Pd -4.1719 4.5617 -3.3168 0
M  V30 42 Pb -5.0655 4.4805 -3.7603 0
M  V30 43 Pb -3.8678 5.1163 -4.0878 0
M  V30 44 Pb -3.2293 4.5507 -2.9878 0
M  V30 45 Pb -4.4876 4.0150 -2.5391 0
M  V30 46 Ag -3.8719 -3.1431 -5.5443 0
M  V30 47 Fe -4.3114 -1.0814 -6.6339 0
M  V30 48 Ag -4.6250 1.0516 -7.6254 0
M  V30 49 Ag -4.2442 0.2354 1.3474 0
M  V30 50 Fe -4.4851 1.9231 -0.3081 0
M  V30 51 Ag -4.7437 3.6147 -1.9569 0
M  V30 52 Ag 1.9020 -3.9957 4.3654 0
M  V30 53 Fe -0.1385 -3.0878 3.5464 0
M  V30 54 Ag -2.2200 -2.2679 2.7375 0
M  V30 55 Ag 1.6728 2.3658 4.2347 0
M  V30 56 Fe -0.3315 1.3072 3.5328 0
M  V30 57 Ag -2.3563 0.2800 2.8430 0
M  V30 58 Ag -1.7005 -4.4410 -3.1534 0
M  V30 59 Fe -0.0396 -3.6882 -1.6383 0
M  V30 60 Ag 1.5892 -2.7496 -0.1937 0
M  V30 61 Ag -4.0263 -4.1436 -3.1392 0
M  V30 62 Fe -4.2428 -3.2690 -0.9449 0
M  V30 63 Ag -4.1521 -2.2006 1.1714 0
M  V30 64 Ba 4.2268 0.7281 8.3070 0
M  V30 65 Ga 3.6231 1.6297 7.3114 0
M  V30 66 Ba 3.0903 2.4597 6.2177 0
M  V30 67 Ba 3.1255 -3.7994 6.5575 0
M  V30 68 Ga 3.6307 -2.8328 7.5537 0
M  V30 69 Ba 4.2127 -1.8097 8.4461 0
M  V30 70 Ba -0.4376 2.5440 -3.6116 0
M  V30 71 Ga -1.4623 3.5334 -3.2172 0
M  V30 72 Ba -2.4970 4.5162 -2.8332 0
M  V30 73 Ba -5.6433 3.2220 -6.8941 0
M  V30 74 Ga -5.7523 3.8086 -5.5422 0
M  V30 75 Ba -5.6797 4.3771 -4.1803 0
M  V30 76 Ba 5.2286 -3.8401 5.4513 0
M  V30 77 Ga 5.8439 -2.8879 6.3883 0
M  V30 78 Ba 6.3198 -1.8645 7.3310 0
M  V30 79 Ba 3.2002 0.2530 0.5969 0
M  V30 80 Ga 3.4509 1.1877 1.7155 0
M  V30 81 Ba 3.7388 2.1648 2.7879 0
M  V30 82 Ba 6.2659 0.6216 7.0683 0
M  V30 83 Ga 5.7387 1.4834 5.9929 0
M  V30 84 Ba 5.0915 2.2899 4.9402 0
M  V30 85 Ba -1.4507 -3.2849 -5.2537 0
M  V30 86 Ga -0.8069 -1.9574 -5.1657 0
M  V30 87 Ba -0.1558 -0.6333 -5.0812 0
M  V30 88 Ba 0.9076 -0.4965 -0.2657 0
M  V30 89 Ga 0.2617 -0.0109 -1.5033 0
M  V30 90 Ba -0.4872 0.4943 -2.6730 0
M  V30 91 Ba 4.2403 -3.8022 3.2530 0
M  V30 92 Ga 3.9795 -3.0296 2.0243 0
M  V30 93 Ba 3.7215 -2.2598 0.7932 0
M  V30 94 Ba -3.6320 4.3781 -7.4011 0
M  V30 95 Ga -3.6073 5.0286 -6.0860 0
M  V30 96 Ba -3.6538 5.4946 -4.6952 0
M  V30 97 Ba -2.4567 2.3297 -7.9404 0
M  V30 98 Ga -1.3984 1.9021 -6.9999 0
M  V30 99 Ba -0.3612 1.4753 -6.0358 0
M  V30 END ATOM
M  V30 BEGIN BOND
M  V30 1 1 1 2
M  V30 2 1 1 3
M  V30 3 1 1 4
M  V30 4 1 1 5
M  V30 5 1 6 7
M  V30 6 1 6 8
M  V30 7 1 6 9
M  V30 8 1 6 10
M  V30 9 1 11 12
M  V30 10 1 11 13
M  V30 11 1 11 14
M  V30 12 1 11 15
M  V30 13 1 16 17
M  V30 14 1 16 18
M  V30 15 1 16 19
M  V30 16 1 16 20
M  V30 17 1 21 22
M  V30 18 1 21 23
M  V30 19 1 21 24
M  V30 20 1 21 25
M  V30 21 1 26 27
M  V30 22 1 26 28
M  V30 23 1 26 29
M  V30 24 1 26 30
M  V30 25 1 31 32
M  V30 26 1 31 33
M  V30 27 1 31 34
M  V30 28 1 31 35
M  V30 29 1 36 37
M  V30 30 1 36 38
M  V30 31 1 36 39
M  V30 32 1 36 40
M  V30 33 1 41 42
M  V30 34 1 41 43
M  V30 35 1 41 44
M  V30 36 1 41 45
M  V30 37 1 46 47
M  V30 38 1 47 48
M  V30 39 1 49 50
M  V30 40 1 50 51
M  V30 41 1 52 53
M  V30 42 1 53 54
M  V30 43 1 55 56
M  V30 44 1 56 57
M  V30 45 1 58 59
M  V30 46 1 59 60
M  V30 47 1 61 62
M  V30 48 1 62 63
M  V30 49 1 64 65
M  V30 50 1 65 66
M  V30 51 1 67 68
M  V30 52 1 68 69
M  V30 53 1 70 71
M  V30 54 1 71 72
M  V30 55 1 73 74
M  V30 56 1 74 75
M  V30 57 1 76 77
M  V30 58 1 77 78
M  V30 59 1 79 80
M  V30 60 1 80 81
M  V30 61 1 82 83
M  V30 62 1 83 84
M  V30 63 1 85 86
M  V30 64 1 86 87
M  V30 65 1 88 89
M  V30 66 1 89 90
M  V30 67 1 91 92
M  V30 68 1 92 93
M  V30 69 1 94 95
M  V30 70 1 95 96
M  V30 71 1 97 98
M  V30 72 1 98 99
M  V30 73 1 2 91
M  V30 74 1 3 67
M  V30 75 1 4 76
M  V30 76 1 5 52
M  V30 77 1 7 82
M  V30 78 1 8 78
M  V30 79 1 9 69
M  V30 80 1 10 64
M  V30 81 1 12 85
M  V30 82 1 13 61
M  V30 83 1 14 46
M  V30 84 1 15 58
M  V30 85 1 17 94
M  V30 86 1 18 97
M  V30 87 1 19 73
M  V30 88 1 20 48
M  V30 89 1 22 88
M  V30 90 1 23 79
M  V30 91 1 24 60
M  V30 92 1 25 93
M  V30 93 1 27 84
M  V30 94 1 28 55
M  V30 95 1 29 66
M  V30 96 1 30 81
M  V30 97 1 32 90
M  V30 98 1 33 70
M  V30 99 1 34 87
M  V30 100 1 35 99
M  V30 101 1 37 49
M  V30 102 1 38 63
M  V30 103 1 39 54
M  V30 104 1 40 57
M  V30 105 1 42 75
M  V30 106 1 43 96
M  V30 107 1 44 72
M  V30 108 1 45 51
M  V30 END BOND
M  V30 END CTAB
M  END

$$$$
