
     RDKit          3D

  0  0  0  0  0  0  0  0  0  0999 V3000
M  V30 BEGIN CTAB
M  V30 COUNTS 99 108 0 0 0
M  V30 BEGIN ATOM
M  V30 1 Pd -4.3699 0.8205 -0.2320 0
M  V30 2 Pb -4.4106 0.1956 0.5547 0
M  V30 3 Pb -4.8165 0.0937 -0.7601 0
M  V30 4 Pb -4.0088 1.5913 0.2984 0
M  V30 5 Pb -4.3672 1.4440 -1.0188 0
M  V30 6 Pd 0.9636 -2.4441 -5.8016 0
M  V30 7 Pb 1.2187 -2.1903 -4.8684 0
M  V30 8 Pb 0.6008 -2.7111 -6.6918 0
M  V30 9 Pb 1.1410 -1.5254 -6.1564 0
M  V30 10 Pb 0.6326 -3.3250 -5.4596 0
M  V30 11 Pd 2.9204 -3.3585 4.5477 0
M  V30 12 Pb 2.3509 -3.1140 5.3300 0
M  V30 13 Pb 3.4797 -3.5527 3.7435 0
M  V30 14 Pb 3.7107 -2.8973 4.9550 0
M  V30 15 Pb 2.1158 -3.7727 4.1151 0
M  V30 16 Pd 6.0771 3.3314 4.7504 0
M  V30 17 Pb 6.3308 2.4286 5.0974 0
M  V30 18 Pb 5.5412 3.5083 5.5748 0
M  V30 19 Pb 6.5382 3.1463 3.8827 0
M  V30 20 Pb 5.6862 4.1741 4.3806 0
M  V30 21 Pd 4.4761 0.0587 -1.6694 0
M  V30 22 Pb 3.6640 -0.4522 -1.9489 0
M  V30 23 Pb 4.8318 -0.7794 -1.2617 0
M  V30 24 Pb 5.2478 0.5730 -1.2964 0
M  V30 25 Pb 4.0426 0.8959 -1.9974 0
M  V30 26 Pd -0.6540 5.2021 5.1469 0
M  V30 27 Pb -0.0264 5.0957 5.9162 0
M  V30 28 Pb -1.3381 4.6285 5.5898 0
M  V30 29 Pb -1.2315 5.2084 4.3316 0
M  V30 30 Pb 0.0846 5.6918 4.6824 0
M  V30 31 Pd -2.1286 -1.8875 4.5980 0
M  V30 32 Pb -2.8518 -1.8059 3.9069 0
M  V30 33 Pb -2.5144 -1.1037 5.0802 0
M  V30 34 Pb -1.7016 -2.6577 4.1199 0
M  V30 35 Pb -1.4370 -1.9772 5.3153 0
M  V30 36 Pd -1.7769 2.1491 -5.1760 0
M  V30 37 Pb -1.0270 2.5340 -4.6404 0
M  V30 38 Pb -2.5272 1.7770 -5.7253 0
M  V30 39 Pb -1.0666 1.8108 -5.7997 0
M  V30 40 Pb -2.4696 2.4793 -4.5310 0
M  V30 41 Pd -5.3965 -3.9344 -6.2315 0
M  V30 42 Pb -4.8593 -4.0663 -7.0612 0
M  V30 43 Pb -5.8088 -3.7072 -5.3502 0
M  V30 44 Pb -5.7086 -3.0630 -6.5990 0
M  V30 45 Pb -4.8634 -4.6702 -5.8177 0
M  V30 46 Ag 3.6429 1.4925 -2.2078 0
M  V30 47 Fe 1.6344 2.2280 -3.2361 0
M  V30 48 Ag -0.4160 2.7896 -4.2911 0
M  V30 49 Ag 6.8251 2.9975 3.2060 0
M  V30 50 Fe 6.4101 2.0002 1.0913 0
M  V30 51 Ag 5.7945 0.9476 -0.9463 0
M  V30 52 Ag 5.0606 3.6729 6.1247 0
M  V30 53 Fe 2.8069 4.3318 6.4671 0
M  V30 54 Ag 0.5235 4.9747 6.4090 0
M  V30 55 Ag 0.2576 -3.9407 -5.2492 0
M  V30 56 Fe -1.9701 -4.7630 -5.2724 0
M  V30 57 Ag -4.3076 -5.0856 -5.5371 0
M  V30 58 Ag 0.2085 -2.9440 -7.2830 0
M  V30 59 Fe -2.0281 -3.5843 -7.7324 0
M  V30 60 Ag -4.3385 -4.0912 -7.5949 0
M  V30 61 Ag 5.2760 4.7539 4.1399 0
M  V30 62 Fe 3.0309 5.5290 4.1605 0
M  V30 63 Ag 0.7093 5.9797 4.3823 0
M  V30 64 Ag 4.3049 -2.5209 5.2200 0
M  V30 65 Fe 5.4426 -0.4381 5.3364 0
M  V30 66 Ag 6.4260 1.7249 5.3387 0
M  V30 67 Ag -3.7941 2.2378 0.6204 0
M  V30 68 Fe -2.7130 3.6572 2.1909 0
M  V30 69 Ag -1.6615 5.1416 3.7212 0
M  V30 70 Ag -3.1253 1.5080 -6.0927 0
M  V30 71 Fe -4.5449 -0.3392 -6.5511 0
M  V30 72 Ag -5.7673 -2.3552 -6.8282 0
M  V30 73 Ag -5.1997 -0.4548 -1.1067 0
M  V30 74 Fe -5.6329 -1.9690 -2.8872 0
M  V30 75 Ag -6.0481 -3.4755 -4.6786 0
M  V30 76 Ag -1.8221 4.1294 5.8615 0
M  V30 77 Fe -2.4005 1.8332 5.7400 0
M  V30 78 Ag -2.7583 -0.4903 5.4312 0
M  V30 79 Ag 3.9046 -3.6325 3.1324 0
M  V30 80 Fe 4.5508 -2.6241 1.0845 0
M  V30 81 Ag 5.0170 -1.4046 -0.8962 0
M  V30 82 Ba 1.3197 -2.0536 -4.1377 0
M  V30 83 Ga 2.2366 -1.4164 -3.1744 0
M  V30 84 Ba 3.0331 -0.8356 -2.0776 0
M  V30 85 Ba -4.5220 -0.3292 1.0865 0
M  V30 86 Ga -3.9038 -0.9931 2.2564 0
M  V30 87 Ba -3.4380 -1.7565 3.4362 0
M  V30 88 Ba 1.4973 -4.0569 3.7926 0
M  V30 89 Ga 0.0731 -3.6584 3.7781 0
M  V30 90 Ba -1.3420 -3.2288 3.7875 0
M  V30 91 Ba 1.8954 -2.9106 5.8875 0
M  V30 92 Ga 0.4854 -2.4812 5.8967 0
M  V30 93 Ba -0.9257 -2.0571 5.8588 0
M  V30 94 Ba 1.1882 -0.8401 -6.4608 0
M  V30 95 Ga 0.3582 0.3784 -6.3401 0
M  V30 96 Ba -0.4770 1.5931 -6.2168 0
M  V30 97 Ba -4.3818 1.9612 -1.5671 0
M  V30 98 Ga -3.6705 2.3030 -2.8180 0
M  V30 99 Ba -3.0186 2.7226 -4.0777 0
M  V30 END ATOM
M  V30 BEGIN BOND
M  V30 1 1 1 2
M  V30 2 1 1 3
M  V30 3 1 1 4
M  V30 4 1 1 5
M  V30 5 1 6 7
M  V30 6 1 6 8
M  V30 7 1 6 9
M  V30 8 1 6 10
M  V30 9 1 11 12
M  V30 10 1 11 13
M  V30 11 1 11 14
M  V30 12 1 11 15
M  V30 13 1 16 17
M  V30 14 1 16 18
M  V30 15 1 16 19
M  V30 16 1 16 20
M  V30 17 1 21 22
M  V30 18 1 21 23
M  V30 19 1 21 24
M  V30 20 1 21 25
M  V30 21 1 26 27
M  V30 22 1 26 28
M  V30 23 1 26 29
M  V30 24 1 26 30
M  V30 25 1 31 32
M  V30 26 1 31 33
M  V30 27 1 31 34
M  V30 28 1 31 35
M  V30 29 1 36 37
M  V30 30 1 36 38
M  V30 31 1 36 39
M  V30 32 1 36 40
M  V30 33 1 41 42
M  V30 34 1 41 43
M  V30 35 1 41 44
M  V30 36 1 41 45
M  V30 37 1 46 47
M  V30 38 1 47 48
M  V30 39 1 49 50
M  V30 40 1 50 51
M  V30 41 1 52 53
M  V30 42 1 53 54
M  V30 43 1 55 56
M  V30 44 1 56 57
M  V30 45 1 58 59
M  V30 46 1 59 60
M  V30 47 1 61 62
M  V30 48 1 62 63
M  V30 49 1 64 65
M  V30 50 1 65 66
M  V30 51 1 67 68
M  V30 52 1 68 69
M  V30 53 1 70 71
M  V30 54 1 71 72
M  V30 55 1 73 74
M  V30 56 1 74 75
M  V30 57 1 76 77
M  V30 58 1 77 78
M  V30 59 1 79 80
M  V30 60 1 80 81
M  V30 61 1 82 83
M  V30 62 1 83 84
M  V30 63 1 85 86
M  V30 64 1 86 87
M  V30 65 1 88 89
M  V30 66 1 89 90
M  V30 67 1 91 92
M  V30 68 1 92 93
M  V30 69 1 94 95
M  V30 70 1 95 96
M  V30 71 1 97 98
M  V30 72 1 98 99
M  V30 73 1 2 85
M  V30 74 1 3 73
M  V30 75 1 4 67
M  V30 76 1 5 97
M  V30 77 1 7 82
M  V30 78 1 8 58
M  V30 79 1 9 94
M  V30 80 1 10 55
M  V30 81 1 12 91
M  V30 82 1 13 79
M  V30 83 1 14 64
M  V30 84 1 15 88
M  V30 85 1 17 66
M  V30 86 1 18 52
M  V30 87 1 19 49
M  V30 88 1 20 61
M  V30 89 1 22 84
M  V30 90 1 23 81
M  V30 91 1 24 51
M  V30 92 1 25 46
M  V30 93 1 27 54
M  V30 94 1 28 76
M  V30 95 1 29 69
M  V30 96 1 30 63
M  V30 97 1 32 87
M  V30 98 1 33 78
M  V30 99 1 34 90
M  V30 100 1 35 93
M  V30 101 1 37 48
M  V30 102 1 38 70
M  V30 103 1 39 96
M  V30 104 1 40 99
M  V30 105 1 42 60
M  V30 106 1 43 75
M  V30 107 1 44 72
M  V30 108 1 45 57
M  V30 END BOND
M  V30 END CTAB
M  END

$$$$
