
     RDKit          3D

  0  0  0  0  0  0  0  0  0  0999 V3000
M  V30 BEGIN CTAB
M  V30 COUNTS 99 108 0 0 0
M  V30 BEGIN ATOM
M  V30 1 Pd -0.0250 -3.5333 2.6817 0
M  V30 2 Pb 0.9751 -3.5352 2.7729 0
M  V30 3 Pb 0.0030 -4.4910 2.3865 0
M  V30 4 Pb -0.0824 -2.5921 3.0114 0
M  V30 5 Pb -1.0240 -3.5309 2.6143 0
M  V30 6 Pd -3.7026 3.4075 2.6617 0
M  V30 7 Pb -3.8222 2.9568 1.7759 0
M  V30 8 Pb -4.2154 4.1846 2.3034 0
M  V30 9 Pb -3.0859 2.6880 2.9830 0
M  V30 10 Pb -3.4967 3.9224 3.4917 0
M  V30 11 Pd -1.8115 5.5132 -1.0799 0
M  V30 12 Pb -0.9875 5.1031 -1.4737 0
M  V30 13 Pb -2.6361 5.8960 -0.6637 0
M  V30 14 Pb -1.2750 6.2963 -0.7630 0
M  V30 15 Pb -2.3290 4.6762 -1.2600 0
M  V30 16 Pd 4.6918 -0.2561 2.4368 0
M  V30 17 Pb 5.0089 0.6783 2.2800 0
M  V30 18 Pb 4.9787 -0.5011 1.5110 0
M  V30 19 Pb 4.4023 0.0557 3.3434 0
M  V30 20 Pb 4.3717 -1.1917 2.6085 0
M  V30 21 Pd -0.6865 0.8965 -3.7019 0
M  V30 22 Pb -1.3357 1.0305 -2.9523 0
M  V30 23 Pb -0.0192 0.7188 -4.4258 0
M  V30 24 Pb -0.1401 1.6697 -3.3781 0
M  V30 25 Pb -1.2544 0.1480 -4.0422 0
M  V30 26 Pd 2.4465 6.1614 4.5937 0
M  V30 27 Pb 2.6602 5.3533 5.1443 0
M  V30 28 Pb 3.2646 5.9579 4.0613 0
M  V30 29 Pb 2.1745 6.8592 3.9307 0
M  V30 30 Pb 1.5713 6.2602 5.0630 0
M  V30 31 Pd -0.1444 -6.4577 -1.9880 0
M  V30 32 Pb 0.8521 -6.4476 -2.0267 0
M  V30 33 Pb -1.1425 -6.4684 -1.9557 0
M  V30 34 Pb -0.1680 -6.1874 -2.9528 0
M  V30 35 Pb -0.1062 -6.6808 -1.0136 0
M  V30 36 Pd -3.6829 -2.6130 -1.1974 0
M  V30 37 Pb -3.7954 -3.5912 -1.3639 0
M  V30 38 Pb -3.5581 -2.4608 -2.1762 0
M  V30 39 Pb -3.7625 -2.7832 -0.2159 0
M  V30 40 Pb -3.5659 -1.6309 -1.0425 0
M  V30 41 Pd 2.8701 -3.0707 -4.4223 0
M  V30 42 Pb 3.5955 -2.5757 -3.9482 0
M  V30 43 Pb 2.1176 -3.5896 -4.8300 0
M  V30 44 Pb 3.1266 -3.8830 -3.9022 0
M  V30 45 Pb 2.6149 -2.2511 -4.9390 0
M  V30 46 Ag 5.2121 1.3962 2.2159 0
M  V30 47 Fe 4.6550 3.6123 2.8530 0
M  V30 48 Ag 3.8295 5.6866 3.6548 0
M  V30 49 Ag 5.1893 -0.6325 0.8033 0
M  V30 50 Fe 4.6950 -1.4278 -1.3782 0
M  V30 51 Ag 4.1231 -2.2473 -3.5316 0
M  V30 52 Ag 4.2029 0.3936 3.9845 0
M  V30 53 Fe 3.5008 2.4844 4.8706 0
M  V30 54 Ag 2.8128 4.6844 5.4504 0
M  V30 55 Ag -3.2486 4.3328 4.0656 0
M  V30 56 Fe -1.2720 5.3693 4.8684 0
M  V30 57 Ag 0.8780 6.2514 5.3426 0
M  V30 58 Ag -0.1774 -1.8983 3.2774 0
M  V30 59 Fe -1.3863 0.1457 3.2314 0
M  V30 60 Ag -2.5631 2.2087 3.2299 0
M  V30 61 Ag -0.8587 6.8285 -0.4359 0
M  V30 62 Fe 0.5609 7.2212 1.4282 0
M  V30 63 Ag 1.9261 7.2932 3.3712 0
M  V30 64 Ba 1.5966 -6.4186 -2.0823 0
M  V30 65 Ga 2.4838 -5.4745 -2.7794 0
M  V30 66 Ba 3.3037 -4.4890 -3.5012 0
M  V30 67 Ba 0.0158 -5.2183 2.1937 0
M  V30 68 Ga -0.0270 -6.0135 0.9498 0
M  V30 69 Ba -0.0681 -6.8314 -0.2795 0
M  V30 70 Ba -0.3663 4.7879 -1.7546 0
M  V30 71 Ga -0.0537 3.5241 -2.4506 0
M  V30 72 Ba 0.2608 2.2608 -3.1467 0
M  V30 73 Ba -1.7743 -3.5042 2.5865 0
M  V30 74 Ga -2.7884 -3.2221 1.5524 0
M  V30 75 Ba -3.8001 -2.9402 0.5159 0
M  V30 76 Ba -1.8907 -6.4660 -1.9297 0
M  V30 77 Ga -2.8939 -5.4099 -1.7115 0
M  V30 78 Ba -3.8657 -4.3257 -1.4894 0
M  V30 79 Ba -4.5129 4.7877 1.9774 0
M  V30 80 Ga -3.9601 5.5205 0.8264 0
M  V30 81 Ba -3.2645 6.1225 -0.3233 0
M  V30 82 Ba 0.4873 0.5613 -4.9566 0
M  V30 83 Ga 1.4588 -0.5345 -5.1468 0
M  V30 84 Ba 2.4266 -1.6351 -5.3269 0
M  V30 85 Ba -3.8731 2.6990 1.0720 0
M  V30 86 Ga -3.3307 3.3026 -0.1618 0
M  V30 87 Ba -2.7229 4.0377 -1.2890 0
M  V30 88 Ba 1.7237 -3.5777 2.8534 0
M  V30 89 Ga 2.9132 -2.7000 2.7847 0
M  V30 90 Ba 4.1593 -1.9029 2.7383 0
M  V30 91 Ba -0.1616 -5.9582 -3.6693 0
M  V30 92 Ga 0.6750 -4.9890 -4.4068 0
M  V30 93 Ba 1.5475 -4.0076 -5.0839 0
M  V30 94 Ba -1.6999 -0.4012 -4.2899 0
M  V30 95 Ga -2.5725 -1.3807 -3.6194 0
M  V30 96 Ba -3.4305 -2.3409 -2.9038 0
M  V30 97 Ba -1.8186 1.0956 -2.3812 0
M  V30 98 Ga -2.6538 0.1191 -1.6541 0
M  V30 99 Ba -3.4726 -0.8908 -0.9546 0
M  V30 END ATOM
M  V30 BEGIN BOND
M  V30 1 1 1 2
M  V30 2 1 1 3
M  V30 3 1 1 4
M  V30 4 1 1 5
M  V30 5 1 6 7
M  V30 6 1 6 8
M  V30 7 1 6 9
M  V30 8 1 6 10
M  V30 9 1 11 12
M  V30 10 1 11 13
M  V30 11 1 11 14
M  V30 12 1 11 15
M  V30 13 1 16 17
M  V30 14 1 16 18
M  V30 15 1 16 19
M  V30 16 1 16 20
M  V30 17 1 21 22
M  V30 18 1 21 23
M  V30 19 1 21 24
M  V30 20 1 21 25
M  V30 21 1 26 27
M  V30 22 1 26 28
M  V30 23 1 26 29
M  V30 24 1 26 30
M  V30 25 1 31 32
M  V30 26 1 31 33
M  V30 27 1 31 34
M  V30 28 1 31 35
M  V30 29 1 36 37
M  V30 30 1 36 38
M  V30 31 1 36 39
M  V30 32 1 36 40
M  V30 33 1 41 42
M  V30 34 1 41 43
M  V30 35 1 41 44
M  V30 36 1 41 45
M  V30 37 1 46 47
M  V30 38 1 47 48
M  V30 39 1 49 50
M  V30 40 1 50 51
M  V30 41 1 52 53
M  V30 42 1 53 54
M  V30 43 1 55 56
M  V30 44 1 56 57
M  V30 45 1 58 59
M  V30 46 1 59 60
M  V30 47 1 61 62
M  V30 48 1 62 63
M  V30 49 1 64 65
M  V30 50 1 65 66
M  V30 51 1 67 68
M  V30 52 1 68 69
M  V30 53 1 70 71
M  V30 54 1 71 72
M  V30 55 1 73 74
M  V30 56 1 74 75
M  V30 57 1 76 77
M  V30 58 1 77 78
M  V30 59 1 79 80
M  V30 60 1 80 81
M  V30 61 1 82 83
M  V30 62 1 83 84
M  V30 63 1 85 86
M  V30 64 1 86 87
M  V30 65 1 88 89
M  V30 66 1 89 90
M  V30 67 1 91 92
M  V30 68 1 92 93
M  V30 69 1 94 95
M  V30 70 1 95 96
M  V30 71 1 97 98
M  V30 72 1 98 99
M  V30 73 1 2 88
M  V30 74 1 3 67
M  V30 75 1 4 58
M  V30 76 1 5 73
M  V30 77 1 7 85
M  V30 78 1 8 79
M  V30 79 1 9 60
M  V30 80 1 10 55
M  V30 81 1 12 70
M  V30 82 1 13 81
M  V30 83 1 14 61
M  V30 84 1 15 87
M  V30 85 1 17 46
M  V30 86 1 18 49
M  V30 87 1 19 52
M  V30 88 1 20 90
M  V30 89 1 22 97
M  V30 90 1 23 82
M  V30 91 1 24 72
M  V30 92 1 25 94
M  V30 93 1 27 54
M  V30 94 1 28 48
M  V30 95 1 29 63
M  V30 96 1 30 57
M  V30 97 1 32 64
M  V30 98 1 33 76
M  V30 99 1 34 91
M  V30 100 1 35 69
M  V30 101 1 37 78
M  V30 102 1 38 96
M  V30 103 1 39 75
M  V30 104 1 40 99
M  V30 105 1 42 51
M  V30 106 1 43 93
M  V30 107 1 44 66
M  V30 108 1 45 84
M  V30 END BOND
M  V30 END CTAB
M  END

$$$$
