
     RDKit          3D

  0  0  0  0  0  0  0  0  0  0999 V3000
M  V30 BEGIN CTAB
M  V30 COUNTS 99 108 0 0 0
M  V30 BEGIN ATOM
M  V30 1 Pd 2.6930 -3.0404 -5.4160 0
M  V30 2 Pb 2.1910 -2.7714 -6.2352 0
M  V30 3 Pb 1.8195 -3.0967 -4.9375 0
M  V30 4 Pb 3.5622 -2.9900 -5.9044 0
M  V30 5 Pb 3.1984 -3.0483 -4.5429 0
M  V30 6 Pd -2.0895 6.0790 6.2980 0
M  V30 7 Pb -2.1168 6.2378 5.3114 0
M  V30 8 Pb -2.9884 5.6132 6.2777 0
M  V30 9 Pb -2.0028 5.8482 7.2623 0
M  V30 10 Pb -1.1263 6.3360 6.2606 0
M  V30 11 Pd 2.1241 3.2923 1.5664 0
M  V30 12 Pb 1.4448 3.9920 1.3513 0
M  V30 13 Pb 1.8618 2.7634 0.7602 0
M  V30 14 Pb 2.3485 3.8413 2.3721 0
M  V30 15 Pb 2.6925 2.5333 1.8827 0
M  V30 16 Pd 4.4330 1.1743 -3.0760 0
M  V30 17 Pb 3.5509 1.2470 -2.6106 0
M  V30 18 Pb 5.2882 1.0716 -3.5810 0
M  V30 19 Pb 4.5402 0.2378 -2.7158 0
M  V30 20 Pb 4.2140 1.9760 -3.6283 0
M  V30 21 Pd 0.0540 1.4827 -5.6099 0
M  V30 22 Pb -0.8339 1.0219 -5.4118 0
M  V30 23 Pb 0.9178 1.9764 -5.7430 0
M  V30 24 Pb 0.3027 0.7374 -6.2427 0
M  V30 25 Pb -0.2224 2.2395 -5.0304 0
M  V30 26 Pd 1.4930 -4.1308 3.1009 0
M  V30 27 Pb 2.0322 -3.2897 3.1785 0
M  V30 28 Pb 2.0756 -4.4194 2.3402 0
M  V30 29 Pb 0.8525 -3.8487 3.8191 0
M  V30 30 Pb 0.9733 -4.9779 2.9892 0
M  V30 31 Pd -3.8823 0.6990 6.1117 0
M  V30 32 Pb -4.2458 1.6483 6.1244 0
M  V30 33 Pb -3.5118 0.8516 7.0229 0
M  V30 34 Pb -4.3160 0.5410 5.2221 0
M  V30 35 Pb -3.4372 -0.1986 6.0945 0
M  V30 36 Pd -0.3198 -5.6977 -1.1894 0
M  V30 37 Pb 0.6660 -5.6550 -1.0288 0
M  V30 38 Pb -0.2693 -5.0607 -1.9580 0
M  V30 39 Pb -0.4070 -6.2546 -0.3657 0
M  V30 40 Pb -1.3089 -5.6578 -1.3042 0
M  V30 41 Pd -4.4510 0.1234 -1.7544 0
M  V30 42 Pb -4.2628 1.0951 -1.6810 0
M  V30 43 Pb -4.6074 -0.8613 -1.8056 0
M  V30 44 Pb -4.0129 0.1047 -2.6765 0
M  V30 45 Pb -4.8479 0.1276 -0.8353 0
M  V30 46 Ag 4.2408 -2.8210 -6.1552 0
M  V30 47 Fe 5.6041 -1.0360 -5.4541 0
M  V30 48 Ag 5.8156 0.8375 -4.0476 0
M  V30 49 Ag -1.9639 5.4914 7.9098 0
M  V30 50 Fe -2.4909 3.2342 8.3252 0
M  V30 51 Ag -3.2512 1.1031 7.6704 0
M  V30 52 Ag -2.0317 6.3067 4.5699 0
M  V30 53 Fe -0.6694 5.5144 2.7949 0
M  V30 54 Ag 0.8871 4.4906 1.3241 0
M  V30 55 Ag -0.3907 6.3836 6.1354 0
M  V30 56 Fe 1.1867 5.4403 4.6336 0
M  V30 57 Ag 2.4264 4.2999 2.9609 0
M  V30 58 Ag -4.6912 0.4357 4.5786 0
M  V30 59 Fe -4.8714 0.2823 2.2135 0
M  V30 60 Ag -5.1373 0.1127 -0.1424 0
M  V30 61 Ag -0.5153 2.7448 -4.5764 0
M  V30 62 Fe -2.2598 2.7144 -2.9952 0
M  V30 63 Ag -4.0010 1.7851 -1.7119 0
M  V30 64 Ag 3.0388 1.9281 2.1589 0
M  V30 65 Fe 2.7992 -0.3759 2.6893 0
M  V30 66 Ag 2.4664 -2.6755 3.1877 0
M  V30 67 Ag 0.3247 -3.6823 4.3298 0
M  V30 68 Fe -1.3601 -2.2526 5.2088 0
M  V30 69 Ag -3.0499 -0.8434 6.1111 0
M  V30 70 Ag -2.0328 -5.5081 -1.4061 0
M  V30 71 Fe -3.4916 -3.6526 -1.6313 0
M  V30 72 Ag -4.6752 -1.6062 -1.8178 0
M  V30 73 Ba 3.9998 2.4791 -4.1404 0
M  V30 74 Ga 2.7785 2.4845 -4.9735 0
M  V30 75 Ba 1.5323 2.4138 -5.7660 0
M  V30 76 Ba 1.1437 -3.1268 -4.6197 0
M  V30 77 Ga 0.4641 -3.8702 -3.5443 0
M  V30 78 Ba -0.3256 -4.5447 -2.4992 0
M  V30 79 Ba 1.6449 2.3719 0.1593 0
M  V30 80 Ga 2.2835 1.8338 -1.0559 0
M  V30 81 Ba 2.8753 1.2766 -2.2861 0
M  V30 82 Ba 1.8075 -2.4443 -6.7898 0
M  V30 83 Ga 1.1155 -1.1343 -6.7835 0
M  V30 84 Ba 0.4361 0.1819 -6.7423 0
M  V30 85 Ba 0.5971 -5.6133 2.8585 0
M  V30 86 Ga 0.0494 -6.1661 1.6073 0
M  V30 87 Ba -0.4511 -6.6060 0.2933 0
M  V30 88 Ba 3.5788 -2.9530 -3.8914 0
M  V30 89 Ga 4.0883 -1.7406 -3.1889 0
M  V30 90 Ba 4.5778 -0.4980 -2.5264 0
M  V30 91 Ba 2.4616 -4.6485 1.7386 0
M  V30 92 Ga 1.9871 -5.1309 0.4276 0
M  V30 93 Ba 1.3887 -5.5949 -0.8385 0
M  V30 94 Ba -3.6395 5.2149 6.2542 0
M  V30 95 Ga -4.0424 3.7766 6.1981 0
M  V30 96 Ba -4.5230 2.3626 6.1412 0
M  V30 97 Ba -1.5115 0.6759 -5.2985 0
M  V30 98 Ga -2.5690 0.4104 -4.2708 0
M  V30 99 Ba -3.7229 0.0454 -3.3877 0
M  V30 END ATOM
M  V30 BEGIN BOND
M  V30 1 1 1 2
M  V30 2 1 1 3
M  V30 3 1 1 4
M  V30 4 1 1 5
M  V30 5 1 6 7
M  V30 6 1 6 8
M  V30 7 1 6 9
M  V30 8 1 6 10
M  V30 9 1 11 12
M  V30 10 1 11 13
M  V30 11 1 11 14
M  V30 12 1 11 15
M  V30 13 1 16 17
M  V30 14 1 16 18
M  V30 15 1 16 19
M  V30 16 1 16 20
M  V30 17 1 21 22
M  V30 18 1 21 23
M  V30 19 1 21 24
M  V30 20 1 21 25
M  V30 21 1 26 27
M  V30 22 1 26 28
M  V30 23 1 26 29
M  V30 24 1 26 30
M  V30 25 1 31 32
M  V30 26 1 31 33
M  V30 27 1 31 34
M  V30 28 1 31 35
M  V30 29 1 36 37
M  V30 30 1 36 38
M  V30 31 1 36 39
M  V30 32 1 36 40
M  V30 33 1 41 42
M  V30 34 1 41 43
M  V30 35 1 41 44
M  V30 36 1 41 45
M  V30 37 1 46 47
M  V30 38 1 47 48
M  V30 39 1 49 50
M  V30 40 1 50 51
M  V30 41 1 52 53
M  V30 42 1 53 54
M  V30 43 1 55 56
M  V30 44 1 56 57
M  V30 45 1 58 59
M  V30 46 1 59 60
M  V30 47 1 61 62
M  V30 48 1 62 63
M  V30 49 1 64 65
M  V30 50 1 65 66
M  V30 51 1 67 68
M  V30 52 1 68 69
M  V30 53 1 70 71
M  V30 54 1 71 72
M  V30 55 1 73 74
M  V30 56 1 74 75
M  V30 57 1 76 77
M  V30 58 1 77 78
M  V30 59 1 79 80
M  V30 60 1 80 81
M  V30 61 1 82 83
M  V30 62 1 83 84
M  V30 63 1 85 86
M  V30 64 1 86 87
M  V30 65 1 88 89
M  V30 66 1 89 90
M  V30 67 1 91 92
M  V30 68 1 92 93
M  V30 69 1 94 95
M  V30 70 1 95 96
M  V30 71 1 97 98
M  V30 72 1 98 99
M  V30 73 1 2 82
M  V30 74 1 3 76
M  V30 75 1 4 46
M  V30 76 1 5 88
M  V30 77 1 7 52
M  V30 78 1 8 94
M  V30 79 1 9 49
M  V30 80 1 10 55
M  V30 81 1 12 54
M  V30 82 1 13 79
M  V30 83 1 14 57
M  V30 84 1 15 64
M  V30 85 1 17 81
M  V30 86 1 18 48
M  V30 87 1 19 90
M  V30 88 1 20 73
M  V30 89 1 22 97
M  V30 90 1 23 75
M  V30 91 1 24 84
M  V30 92 1 25 61
M  V30 93 1 27 66
M  V30 94 1 28 91
M  V30 95 1 29 67
M  V30 96 1 30 85
M  V30 97 1 32 96
M  V30 98 1 33 51
M  V30 99 1 34 58
M  V30 100 1 35 69
M  V30 101 1 37 93
M  V30 102 1 38 78
M  V30 103 1 39 87
M  V30 104 1 40 70
M  V30 105 1 42 63
M  V30 106 1 43 72
M  V30 107 1 44 99
M  V30 108 1 45 60
M  V30 END BOND
M  V30 END CTAB
M  END

$$$$
