
     RDKit          3D

  0  0  0  0  0  0  0  0  0  0999 V3000
M  V30 BEGIN CTAB
M  V30 COUNTS 99 108 0 0 0
M  V30 BEGIN ATOM
M  V30 1 Pd 0.5898 -3.0804 4.1022 0
M  V30 2 Pb 0.9544 -4.0068 3.9911 0
M  V30 3 Pb -0.1378 -3.3895 3.4894 0
M  V30 4 Pb 1.3031 -2.8100 4.7545 0
M  V30 5 Pb 0.2020 -2.1623 4.2196 0
M  V30 6 Pd -5.9890 2.3469 -2.0146 0
M  V30 7 Pb -5.4739 3.1142 -2.3982 0
M  V30 8 Pb -5.7115 1.7722 -2.7803 0
M  V30 9 Pb -6.2718 2.8995 -1.2254 0
M  V30 10 Pb -6.5441 1.5707 -1.6774 0
M  V30 11 Pd 2.5773 -1.4858 -5.3066 0
M  V30 12 Pb 3.3087 -2.1126 -5.0492 0
M  V30 13 Pb 1.8608 -0.8210 -5.5237 0
M  V30 14 Pb 3.2366 -0.7837 -5.5670 0
M  V30 15 Pb 1.9427 -2.1637 -4.9239 0
M  V30 16 Pd 4.8785 3.8817 -1.3722 0
M  V30 17 Pb 5.0837 3.6672 -2.3253 0
M  V30 18 Pb 5.5734 3.2330 -1.0735 0
M  V30 19 Pb 4.1915 4.5429 -1.6752 0
M  V30 20 Pb 4.6422 3.9906 -0.4031 0
M  V30 21 Pd -0.7546 4.9524 -2.9040 0
M  V30 22 Pb -1.7430 4.8682 -3.0481 0
M  V30 23 Pb -0.5931 4.3560 -3.6924 0
M  V30 24 Pb 0.2168 5.1829 -2.8075 0
M  V30 25 Pb -0.9396 5.4447 -2.0567 0
M  V30 26 Pd 5.5592 -0.6481 4.2257 0
M  V30 27 Pb 6.1767 -0.3938 3.4868 0
M  V30 28 Pb 5.9082 -1.5820 4.1964 0
M  V30 29 Pb 4.8963 -0.9323 4.9191 0
M  V30 30 Pb 5.1814 0.2794 4.1589 0
M  V30 31 Pd 3.3545 -5.9699 0.2720 0
M  V30 32 Pb 2.7888 -6.1564 1.0774 0
M  V30 33 Pb 4.1390 -5.9822 0.8869 0
M  V30 34 Pb 2.5764 -5.8370 -0.3489 0
M  V30 35 Pb 3.9365 -5.7492 -0.5071 0
M  V30 36 Pd -4.3033 3.0194 3.1281 0
M  V30 37 Pb -3.7714 3.8086 2.8262 0
M  V30 38 Pb -4.8242 2.2124 3.3974 0
M  V30 39 Pb -5.0821 3.3722 2.6048 0
M  V30 40 Pb -3.5036 2.6295 3.5871 0
M  V30 41 Pd -5.9393 -3.1064 -0.1056 0
M  V30 42 Pb -5.7035 -3.2511 -1.0625 0
M  V30 43 Pb -5.2010 -3.7028 0.1977 0
M  V30 44 Pb -6.1297 -2.8547 0.8390 0
M  V30 45 Pb -6.5928 -2.3932 -0.3893 0
M  V30 46 Ag -1.1076 5.7249 -1.3849 0
M  V30 47 Fe -2.2151 5.1811 0.6409 0
M  V30 48 Ag -3.3840 4.3834 2.5445 0
M  V30 49 Ag 6.0679 2.7513 -0.7903 0
M  V30 50 Fe 6.4606 1.2508 1.0012 0
M  V30 51 Ag 6.5700 -0.1700 2.8943 0
M  V30 52 Ag 1.5517 -2.6950 -4.5566 0
M  V30 53 Fe 1.6776 -4.2243 -2.7351 0
M  V30 54 Ag 2.0612 -5.6546 -0.8698 0
M  V30 55 Ag -5.5334 1.2245 -3.2508 0
M  V30 56 Fe -5.4018 -1.1152 -2.9680 0
M  V30 57 Ag -5.5332 -3.1485 -1.7775 0
M  V30 58 Ag 3.8107 -2.5998 -4.7880 0
M  V30 59 Fe 4.2076 -4.1139 -3.0075 0
M  V30 60 Ag 4.3158 -5.5371 -1.1146 0
M  V30 61 Ag 4.4977 3.9640 0.3365 0
M  V30 62 Fe 4.6585 2.5612 2.2528 0
M  V30 63 Ag 4.9293 0.9736 4.0057 0
M  V30 64 Ag 3.7016 -0.2065 -5.6637 0
M  V30 65 Fe 4.5557 1.6700 -4.4915 0
M  V30 66 Ag 5.1926 3.4200 -3.0227 0
M  V30 67 Ag -0.0420 -1.4632 4.3602 0
M  V30 68 Fe -1.4931 0.4039 4.1097 0
M  V30 69 Ag -2.9050 2.3065 3.9065 0
M  V30 70 Ag -5.1799 1.5748 3.5570 0
M  V30 71 Fe -5.7911 -0.5434 2.6863 0
M  V30 72 Ag -6.2397 -2.5524 1.5116 0
M  V30 73 Ag -0.6469 -3.7249 3.0511 0
M  V30 74 Fe -2.6283 -3.8915 1.7542 0
M  V30 75 Ag -4.6045 -4.0734 0.4514 0
M  V30 76 Ag 6.1154 -2.2921 4.0932 0
M  V30 77 Fe 5.5527 -4.2105 2.8198 0
M  V30 78 Ag 4.6861 -5.8865 1.3854 0
M  V30 79 Ag 1.3898 -0.2579 -5.6857 0
M  V30 80 Fe 0.4132 1.7983 -5.0002 0
M  V30 81 Ag -0.5219 3.8487 -4.2431 0
M  V30 82 Ba -5.1280 3.6914 -2.7304 0
M  V30 83 Ga -3.7700 4.2423 -2.9145 0
M  V30 84 Ba -2.4813 4.9099 -3.1877 0
M  V30 85 Ba 1.1462 -4.7246 3.8732 0
M  V30 86 Ga 1.7969 -5.4954 2.7924 0
M  V30 87 Ba 2.4421 -6.2959 1.7303 0
M  V30 88 Ba 3.7141 5.0587 -1.9379 0
M  V30 89 Ga 2.2923 5.1870 -2.3184 0
M  V30 90 Ba 0.9070 5.4773 -2.7410 0
M  V30 91 Ba -7.0075 1.0020 -1.4723 0
M  V30 92 Ga -6.9830 -0.4159 -1.0220 0
M  V30 93 Ba -7.0690 -1.8306 -0.5686 0
M  V30 94 Ba -6.5012 3.2979 -0.6277 0
M  V30 95 Ga -6.0684 3.4656 0.7772 0
M  V30 96 Ba -5.6449 3.6415 2.1840 0
M  V30 97 Ba 1.7955 -2.5795 5.2766 0
M  V30 98 Ga 3.0991 -1.8848 5.3312 0
M  V30 99 Ba 4.4023 -1.1929 5.4208 0
M  V30 END ATOM
M  V30 BEGIN BOND
M  V30 1 1 1 2
M  V30 2 1 1 3
M  V30 3 1 1 4
M  V30 4 1 1 5
M  V30 5 1 6 7
M  V30 6 1 6 8
M  V30 7 1 6 9
M  V30 8 1 6 10
M  V30 9 1 11 12
M  V30 10 1 11 13
M  V30 11 1 11 14
M  V30 12 1 11 15
M  V30 13 1 16 17
M  V30 14 1 16 18
M  V30 15 1 16 19
M  V30 16 1 16 20
M  V30 17 1 21 22
M  V30 18 1 21 23
M  V30 19 1 21 24
M  V30 20 1 21 25
M  V30 21 1 26 27
M  V30 22 1 26 28
M  V30 23 1 26 29
M  V30 24 1 26 30
M  V30 25 1 31 32
M  V30 26 1 31 33
M  V30 27 1 31 34
M  V30 28 1 31 35
M  V30 29 1 36 37
M  V30 30 1 36 38
M  V30 31 1 36 39
M  V30 32 1 36 40
M  V30 33 1 41 42
M  V30 34 1 41 43
M  V30 35 1 41 44
M  V30 36 1 41 45
M  V30 37 1 46 47
M  V30 38 1 47 48
M  V30 39 1 49 50
M  V30 40 1 50 51
M  V30 41 1 52 53
M  V30 42 1 53 54
M  V30 43 1 55 56
M  V30 44 1 56 57
M  V30 45 1 58 59
M  V30 46 1 59 60
M  V30 47 1 61 62
M  V30 48 1 62 63
M  V30 49 1 64 65
M  V30 50 1 65 66
M  V30 51 1 67 68
M  V30 52 1 68 69
M  V30 53 1 70 71
M  V30 54 1 71 72
M  V30 55 1 73 74
M  V30 56 1 74 75
M  V30 57 1 76 77
M  V30 58 1 77 78
M  V30 59 1 79 80
M  V30 60 1 80 81
M  V30 61 1 82 83
M  V30 62 1 83 84
M  V30 63 1 85 86
M  V30 64 1 86 87
M  V30 65 1 88 89
M  V30 66 1 89 90
M  V30 67 1 91 92
M  V30 68 1 92 93
M  V30 69 1 94 95
M  V30 70 1 95 96
M  V30 71 1 97 98
M  V30 72 1 98 99
M  V30 73 1 2 85
M  V30 74 1 3 73
M  V30 75 1 4 97
M  V30 76 1 5 67
M  V30 77 1 7 82
M  V30 78 1 8 55
M  V30 79 1 9 94
M  V30 80 1 10 91
M  V30 81 1 12 58
M  V30 82 1 13 79
M  V30 83 1 14 64
M  V30 84 1 15 52
M  V30 85 1 17 66
M  V30 86 1 18 49
M  V30 87 1 19 88
M  V30 88 1 20 61
M  V30 89 1 22 84
M  V30 90 1 23 81
M  V30 91 1 24 90
M  V30 92 1 25 46
M  V30 93 1 27 51
M  V30 94 1 28 76
M  V30 95 1 29 99
M  V30 96 1 30 63
M  V30 97 1 32 87
M  V30 98 1 33 78
M  V30 99 1 34 54
M  V30 100 1 35 60
M  V30 101 1 37 48
M  V30 102 1 38 70
M  V30 103 1 39 96
M  V30 104 1 40 69
M  V30 105 1 42 57
M  V30 106 1 43 75
M  V30 107 1 44 72
M  V30 108 1 45 93
M  V30 END BOND
M  V30 END CTAB
M  END

$$$$
