
     RDKit          3D

  0  0  0  0  0  0  0  0  0  0999 V3000
M  V30 BEGIN CTAB
M  V30 COUNTS 99 108 0 0 0
M  V30 BEGIN ATOM
M  V30 1 Pd 3.4156 -0.2565 -1.8450 0
M  V30 2 Pb 3.9478 -0.2573 -0.9962 0
M  V30 3 Pb 4.0882 -0.8744 -2.2514 0
M  V30 4 Pb 2.7275 0.3381 -1.4296 0
M  V30 5 Pb 2.9043 -0.2494 -2.7058 0
M  V30 6 Pd -1.9621 5.5053 -2.0776 0
M  V30 7 Pb -2.4993 6.2629 -2.4414 0
M  V30 8 Pb -2.7542 4.8904 -2.2304 0
M  V30 9 Pb -1.4419 4.7600 -1.6598 0
M  V30 10 Pb -1.2582 6.1529 -1.7878 0
M  V30 11 Pd -6.2535 4.4633 0.8495 0
M  V30 12 Pb -5.9466 3.6061 1.2632 0
M  V30 13 Pb -6.0845 4.0853 -0.0691 0
M  V30 14 Pb -6.1106 4.9346 1.7155 0
M  V30 15 Pb -6.5644 5.3116 0.4270 0
M  V30 16 Pd 3.2181 1.5986 3.4490 0
M  V30 17 Pb 2.5922 2.1038 4.0447 0
M  V30 18 Pb 3.0321 0.7533 3.9500 0
M  V30 19 Pb 3.4159 2.4451 2.9560 0
M  V30 20 Pb 3.8388 1.0946 2.8472 0
M  V30 21 Pd -3.9649 -2.8965 -0.0338 0
M  V30 22 Pb -3.9826 -2.2894 -0.8271 0
M  V30 23 Pb -3.8385 -3.4980 0.7525 0
M  V30 24 Pb -4.1735 -2.1286 0.5721 0
M  V30 25 Pb -3.7499 -3.6593 -0.6432 0
M  V30 26 Pd 0.3761 6.0106 2.6782 0
M  V30 27 Pb 1.3026 5.7585 2.4016 0
M  V30 28 Pb 0.4629 5.4153 3.4776 0
M  V30 29 Pb -0.5603 6.2312 2.9643 0
M  V30 30 Pb 0.3195 6.5773 1.8527 0
M  V30 31 Pd 3.7879 -5.5693 -1.8711 0
M  V30 32 Pb 4.3013 -5.5452 -1.0124 0
M  V30 33 Pb 3.2650 -5.5915 -2.7239 0
M  V30 34 Pb 3.2126 -6.2889 -1.4804 0
M  V30 35 Pb 4.3636 -4.8448 -2.2510 0
M  V30 36 Pd -0.6995 -3.0750 -4.0423 0
M  V30 37 Pb 0.0038 -3.7431 -4.2922 0
M  V30 38 Pb -1.2799 -3.8093 -3.6935 0
M  V30 39 Pb -0.1148 -2.3288 -4.3603 0
M  V30 40 Pb -1.4255 -2.4213 -3.8191 0
M  V30 41 Pd 1.9591 -5.8851 2.8979 0
M  V30 42 Pb 2.0748 -5.1520 3.5668 0
M  V30 43 Pb 1.8373 -6.5665 2.1768 0
M  V30 44 Pb 2.9232 -5.8165 2.6435 0
M  V30 45 Pb 0.9809 -5.9125 3.0982 0
M  V30 46 Ag 2.9072 0.1102 4.3154 0
M  V30 47 Fe 2.5279 -2.2321 4.2246 0
M  V30 48 Ag 2.1536 -4.5689 4.0305 0
M  V30 49 Ag -5.7198 2.9593 1.5679 0
M  V30 50 Fe -5.0228 0.7043 1.3031 0
M  V30 51 Ag -4.3272 -1.5494 1.0234 0
M  V30 52 Ag -3.6516 -3.9489 1.3193 0
M  V30 53 Fe -1.7870 -4.9840 2.3594 0
M  V30 54 Ag 0.2393 -5.8896 3.1986 0
M  V30 55 Ag -3.0267 6.7686 -2.5689 0
M  V30 56 Fe -5.1295 6.8590 -1.5162 0
M  V30 57 Ag -6.6507 5.9251 0.0180 0
M  V30 58 Ag 2.1998 0.7676 -1.1145 0
M  V30 59 Fe 0.5797 2.4993 -1.2474 0
M  V30 60 Ag -1.0564 4.2197 -1.3098 0
M  V30 61 Ag -5.8002 5.3115 2.2813 0
M  V30 62 Fe -3.5829 5.9123 2.8875 0
M  V30 63 Ag -1.2668 6.3418 3.2028 0
M  V30 64 Ba 4.6601 -5.5414 -0.3531 0
M  V30 65 Ga 4.1838 -5.6446 1.0392 0
M  V30 66 Ba 3.6299 -5.7525 2.4020 0
M  V30 67 Ba 2.1221 2.4949 4.4806 0
M  V30 68 Ga 1.3263 3.7228 4.2871 0
M  V30 69 Ba 0.5420 4.9529 4.0633 0
M  V30 70 Ba 4.5853 -1.3534 -2.5438 0
M  V30 71 Ga 4.6981 -2.8241 -2.5485 0
M  V30 72 Ba 4.7874 -4.2963 -2.5382 0
M  V30 73 Ba 2.5353 -0.2392 -3.3601 0
M  V30 74 Ga 1.4292 -1.0035 -3.9688 0
M  V30 75 Ba 0.3236 -1.7631 -4.5843 0
M  V30 76 Ba 3.5578 3.0883 2.5985 0
M  V30 77 Ga 2.7880 4.3271 2.3860 0
M  V30 78 Ba 1.9915 5.5520 2.1916 0
M  V30 79 Ba -0.7827 6.6569 -1.5009 0
M  V30 80 Ga -0.2133 6.8254 -0.1480 0
M  V30 81 Ba 0.3426 6.9744 1.2130 0
M  V30 82 Ba 2.8815 -5.6051 -3.3691 0
M  V30 83 Ga 1.6948 -4.9180 -3.9166 0
M  V30 84 Ba 0.5133 -4.2541 -4.5029 0
M  V30 85 Ba -3.3753 4.4529 -2.3196 0
M  V30 86 Ga -4.6115 4.1486 -1.5395 0
M  V30 87 Ba -5.8439 3.8506 -0.7510 0
M  V30 88 Ba 4.3767 -0.2700 -0.3788 0
M  V30 89 Ga 4.3164 0.2311 1.0089 0
M  V30 90 Ba 4.3079 0.7089 2.4061 0
M  V30 91 Ba 2.7932 -6.8196 -1.1549 0
M  V30 92 Ga 2.2602 -6.9656 0.2130 0
M  V30 93 Ba 1.7625 -7.0392 1.5998 0
M  V30 94 Ba -3.5767 -4.2178 -1.1124 0
M  V30 95 Ga -2.6602 -4.3106 -2.2630 0
M  V30 96 Ba -1.7263 -4.3356 -3.4029 0
M  V30 97 Ba -3.9270 -1.8501 -1.4315 0
M  V30 98 Ga -2.9739 -1.8751 -2.5583 0
M  V30 99 Ba -1.9914 -1.9532 -3.6572 0
M  V30 END ATOM
M  V30 BEGIN BOND
M  V30 1 1 1 2
M  V30 2 1 1 3
M  V30 3 1 1 4
M  V30 4 1 1 5
M  V30 5 1 6 7
M  V30 6 1 6 8
M  V30 7 1 6 9
M  V30 8 1 6 10
M  V30 9 1 11 12
M  V30 10 1 11 13
M  V30 11 1 11 14
M  V30 12 1 11 15
M  V30 13 1 16 17
M  V30 14 1 16 18
M  V30 15 1 16 19
M  V30 16 1 16 20
M  V30 17 1 21 22
M  V30 18 1 21 23
M  V30 19 1 21 24
M  V30 20 1 21 25
M  V30 21 1 26 27
M  V30 22 1 26 28
M  V30 23 1 26 29
M  V30 24 1 26 30
M  V30 25 1 31 32
M  V30 26 1 31 33
M  V30 27 1 31 34
M  V30 28 1 31 35
M  V30 29 1 36 37
M  V30 30 1 36 38
M  V30 31 1 36 39
M  V30 32 1 36 40
M  V30 33 1 41 42
M  V30 34 1 41 43
M  V30 35 1 41 44
M  V30 36 1 41 45
M  V30 37 1 46 47
M  V30 38 1 47 48
M  V30 39 1 49 50
M  V30 40 1 50 51
M  V30 41 1 52 53
M  V30 42 1 53 54
M  V30 43 1 55 56
M  V30 44 1 56 57
M  V30 45 1 58 59
M  V30 46 1 59 60
M  V30 47 1 61 62
M  V30 48 1 62 63
M  V30 49 1 64 65
M  V30 50 1 65 66
M  V30 51 1 67 68
M  V30 52 1 68 69
M  V30 53 1 70 71
M  V30 54 1 71 72
M  V30 55 1 73 74
M  V30 56 1 74 75
M  V30 57 1 76 77
M  V30 58 1 77 78
M  V30 59 1 79 80
M  V30 60 1 80 81
M  V30 61 1 82 83
M  V30 62 1 83 84
M  V30 63 1 85 86
M  V30 64 1 86 87
M  V30 65 1 88 89
M  V30 66 1 89 90
M  V30 67 1 91 92
M  V30 68 1 92 93
M  V30 69 1 94 95
M  V30 70 1 95 96
M  V30 71 1 97 98
M  V30 72 1 98 99
M  V30 73 1 2 88
M  V30 74 1 3 70
M  V30 75 1 4 58
M  V30 76 1 5 73
M  V30 77 1 7 55
M  V30 78 1 8 85
M  V30 79 1 9 60
M  V30 80 1 10 79
M  V30 81 1 12 49
M  V30 82 1 13 87
M  V30 83 1 14 61
M  V30 84 1 15 57
M  V30 85 1 17 67
M  V30 86 1 18 46
M  V30 87 1 19 76
M  V30 88 1 20 90
M  V30 89 1 22 97
M  V30 90 1 23 52
M  V30 91 1 24 51
M  V30 92 1 25 94
M  V30 93 1 27 78
M  V30 94 1 28 69
M  V30 95 1 29 63
M  V30 96 1 30 81
M  V30 97 1 32 64
M  V30 98 1 33 82
M  V30 99 1 34 91
M  V30 100 1 35 72
M  V30 101 1 37 84
M  V30 102 1 38 96
M  V30 103 1 39 75
M  V30 104 1 40 99
M  V30 105 1 42 48
M  V30 106 1 43 93
M  V30 107 1 44 66
M  V30 108 1 45 54
M  V30 END BOND
M  V30 END CTAB
M  END

$$$$
