
     RDKit          3D

  0  0  0  0  0  0  0  0  0  0999 V3000
M  V30 BEGIN CTAB
M  V30 COUNTS 99 108 0 0 0
M  V30 BEGIN ATOM
M  V30 1 Pd -4.0094 -3.1548 3.1185 0
M  V30 2 Pb -3.3494 -3.7333 2.6352 0
M  V30 3 Pb -4.6799 -2.5981 3.6126 0
M  V30 4 Pb -4.7462 -3.7947 2.8990 0
M  V30 5 Pb -3.2949 -2.4760 3.2949 0
M  V30 6 Pd -8.4680 -1.7312 1.4492 0
M  V30 7 Pb -8.6027 -1.8944 0.4598 0
M  V30 8 Pb -8.2201 -2.6891 1.5943 0
M  V30 9 Pb -8.1994 -1.5436 2.3920 0
M  V30 10 Pb -8.6437 -0.7631 1.2922 0
M  V30 11 Pd 2.1573 0.9363 -3.8930 0
M  V30 12 Pb 2.4542 -0.0166 -3.9492 0
M  V30 13 Pb 1.9029 1.8922 -3.7270 0
M  V30 14 Pb 3.1188 1.1886 -3.9711 0
M  V30 15 Pb 1.1950 0.6626 -3.8709 0
M  V30 16 Pd 8.1755 2.1498 0.0649 0
M  V30 17 Pb 8.2296 3.1377 -0.0543 0
M  V30 18 Pb 8.1085 1.1502 0.1595 0
M  V30 19 Pb 8.1282 2.3112 1.0626 0
M  V30 20 Pb 8.0736 2.0473 -0.9188 0
M  V30 21 Pd -1.2613 -2.8559 -1.5083 0
M  V30 22 Pb -0.6716 -2.3029 -0.9266 0
M  V30 23 Pb -1.8887 -3.3811 -2.0794 0
M  V30 24 Pb -1.2670 -2.1229 -2.1895 0
M  V30 25 Pb -1.2975 -3.5597 -0.7993 0
M  V30 26 Pd -5.4985 -0.9731 -3.2232 0
M  V30 27 Pb -6.4211 -1.3178 -2.9923 0
M  V30 28 Pb -4.5525 -0.6566 -3.3044 0
M  V30 29 Pb -5.8169 -0.0501 -3.0242 0
M  V30 30 Pb -5.1838 -1.9034 -3.4051 0
M  V30 31 Pd 4.2448 -1.6744 -0.0010 0
M  V30 32 Pb 3.2604 -1.5215 0.0655 0
M  V30 33 Pb 4.2692 -1.4301 0.9634 0
M  V30 34 Pb 4.1606 -1.9281 -0.9677 0
M  V30 35 Pb 5.2468 -1.7219 -0.0186 0
M  V30 36 Pd 0.2165 2.7743 0.3744 0
M  V30 37 Pb 0.4783 3.4570 1.0665 0
M  V30 38 Pb 0.5024 3.3593 -0.3858 0
M  V30 39 Pb -0.0557 2.1510 1.1106 0
M  V30 40 Pb -0.0945 2.1343 -0.3316 0
M  V30 41 Pd 4.4523 4.4314 3.6371 0
M  V30 42 Pb 5.4065 4.0875 3.6375 0
M  V30 43 Pb 4.7682 5.2844 3.2312 0
M  V30 44 Pb 4.1884 3.5358 3.9770 0
M  V30 45 Pb 3.4954 4.7069 3.5267 0
M  V30 46 Ag 3.8506 1.3259 -4.0344 0
M  V30 47 Fe 5.9292 1.6705 -2.9498 0
M  V30 48 Ag 7.8718 1.9977 -1.6332 0
M  V30 49 Ag -8.6469 -0.0675 1.0343 0
M  V30 50 Fe -7.5294 0.7846 -0.8575 0
M  V30 51 Ag -6.1447 0.5574 -2.7511 0
M  V30 52 Ag 4.2045 -1.2013 1.6696 0
M  V30 53 Fe 4.1112 0.7104 3.0629 0
M  V30 54 Ag 4.0853 2.8181 4.1401 0
M  V30 55 Ag -2.7699 -1.9498 3.4041 0
M  V30 56 Fe -1.5049 -0.1336 2.5371 0
M  V30 57 Ag -0.2404 1.6828 1.6697 0
M  V30 58 Ag -3.8270 -0.4620 -3.2878 0
M  V30 59 Fe -2.0699 0.6262 -2.1126 0
M  V30 60 Ag -0.3328 1.7203 -0.9134 0
M  V30 61 Ag 8.1647 3.8779 -0.0475 0
M  V30 62 Fe 6.7864 5.3226 1.2063 0
M  V30 63 Ag 5.1320 5.7824 2.8205 0
M  V30 64 Ba 0.6174 3.9764 1.5989 0
M  V30 65 Ga 1.7151 4.4179 2.4897 0
M  V30 66 Ba 2.7789 4.8991 3.4011 0
M  V30 67 Ba -5.2140 -2.2100 3.9722 0
M  V30 68 Ga -6.5705 -1.7886 3.5738 0
M  V30 69 Ba -7.9058 -1.4174 3.0687 0
M  V30 70 Ba 8.0693 2.4891 1.8018 0
M  V30 71 Ga 7.0662 3.1417 2.6942 0
M  V30 72 Ba 6.1093 3.7865 3.6414 0
M  V30 73 Ba -5.3320 -4.2272 2.7180 0
M  V30 74 Ga -6.6717 -3.8643 2.2183 0
M  V30 75 Ba -7.9770 -3.3868 1.7237 0
M  V30 76 Ba -2.3948 -3.7260 -2.5081 0
M  V30 77 Ga -3.6674 -3.2168 -3.0439 0
M  V30 78 Ba -4.9125 -2.5917 -3.5183 0
M  V30 79 Ba -8.6818 -1.9997 -0.2910 0
M  V30 80 Ga -7.8727 -1.7793 -1.5240 0
M  V30 81 Ba -7.1069 -1.5797 -2.7877 0
M  V30 82 Ba 2.7395 -0.7100 -3.9302 0
M  V30 83 Ga 3.3978 -1.4450 -2.8305 0
M  V30 84 Ba 4.0452 -2.1200 -1.6866 0
M  V30 85 Ba -0.2603 -1.8669 -0.4826 0
M  V30 86 Ga 1.1641 -1.6458 -0.1843 0
M  V30 87 Ba 2.5490 -1.3304 0.2012 0
M  V30 88 Ba 0.4720 0.4617 -3.8930 0
M  V30 89 Ga -0.3923 -0.5613 -3.2726 0
M  V30 90 Ba -1.3060 -1.5608 -2.6857 0
M  V30 91 Ba -2.8589 -4.1794 2.2807 0
M  V30 92 Ga -2.0986 -4.1271 1.0165 0
M  V30 93 Ba -1.3417 -4.0672 -0.2494 0
M  V30 94 Ba 8.0746 0.3947 0.1773 0
M  V30 95 Ga 7.0288 -0.6526 0.0978 0
M  V30 96 Ba 5.9996 -1.7165 0.0210 0
M  V30 97 Ba 1.7355 2.6031 -3.5425 0
M  V30 98 Ga 1.2205 3.2087 -2.2956 0
M  V30 99 Ba 0.7017 3.7256 -1.0109 0
M  V30 END ATOM
M  V30 BEGIN BOND
M  V30 1 1 1 2
M  V30 2 1 1 3
M  V30 3 1 1 4
M  V30 4 1 1 5
M  V30 5 1 6 7
M  V30 6 1 6 8
M  V30 7 1 6 9
M  V30 8 1 6 10
M  V30 9 1 11 12
M  V30 10 1 11 13
M  V30 11 1 11 14
M  V30 12 1 11 15
M  V30 13 1 16 17
M  V30 14 1 16 18
M  V30 15 1 16 19
M  V30 16 1 16 20
M  V30 17 1 21 22
M  V30 18 1 21 23
M  V30 19 1 21 24
M  V30 20 1 21 25
M  V30 21 1 26 27
M  V30 22 1 26 28
M  V30 23 1 26 29
M  V30 24 1 26 30
M  V30 25 1 31 32
M  V30 26 1 31 33
M  V30 27 1 31 34
M  V30 28 1 31 35
M  V30 29 1 36 37
M  V30 30 1 36 38
M  V30 31 1 36 39
M  V30 32 1 36 40
M  V30 33 1 41 42
M  V30 34 1 41 43
M  V30 35 1 41 44
M  V30 36 1 41 45
M  V30 37 1 46 47
M  V30 38 1 47 48
M  V30 39 1 49 50
M  V30 40 1 50 51
M  V30 41 1 52 53
M  V30 42 1 53 54
M  V30 43 1 55 56
M  V30 44 1 56 57
M  V30 45 1 58 59
M  V30 46 1 59 60
M  V30 47 1 61 62
M  V30 48 1 62 63
M  V30 49 1 64 65
M  V30 50 1 65 66
M  V30 51 1 67 68
M  V30 52 1 68 69
M  V30 53 1 70 71
M  V30 54 1 71 72
M  V30 55 1 73 74
M  V30 56 1 74 75
M  V30 57 1 76 77
M  V30 58 1 77 78
M  V30 59 1 79 80
M  V30 60 1 80 81
M  V30 61 1 82 83
M  V30 62 1 83 84
M  V30 63 1 85 86
M  V30 64 1 86 87
M  V30 65 1 88 89
M  V30 66 1 89 90
M  V30 67 1 91 92
M  V30 68 1 92 93
M  V30 69 1 94 95
M  V30 70 1 95 96
M  V30 71 1 97 98
M  V30 72 1 98 99
M  V30 73 1 2 91
M  V30 74 1 3 67
M  V30 75 1 4 73
M  V30 76 1 5 55
M  V30 77 1 7 79
M  V30 78 1 8 75
M  V30 79 1 9 69
M  V30 80 1 10 49
M  V30 81 1 12 82
M  V30 82 1 13 97
M  V30 83 1 14 46
M  V30 84 1 15 88
M  V30 85 1 17 61
M  V30 86 1 18 94
M  V30 87 1 19 70
M  V30 88 1 20 48
M  V30 89 1 22 85
M  V30 90 1 23 76
M  V30 91 1 24 90
M  V30 92 1 25 93
M  V30 93 1 27 81
M  V30 94 1 28 58
M  V30 95 1 29 51
M  V30 96 1 30 78
M  V30 97 1 32 87
M  V30 98 1 33 52
M  V30 99 1 34 84
M  V30 100 1 35 96
M  V30 101 1 37 64
M  V30 102 1 38 99
M  V30 103 1 39 57
M  V30 104 1 40 60
M  V30 105 1 42 72
M  V30 106 1 43 63
M  V30 107 1 44 54
M  V30 108 1 45 66
M  V30 END BOND
M  V30 END CTAB
M  END

$$$$
