
     RDKit          3D

  0  0  0  0  0  0  0  0  0  0999 V3000
M  V30 BEGIN CTAB
M  V30 COUNTS 99 108 0 0 0
M  V30 BEGIN ATOM
M  V30 1 Pd 0.4504 -4.9031 0.1500 0
M  V30 2 Pb 0.7318 -4.7894 1.1076 0
M  V30 3 Pb 0.1940 -5.0601 -0.8041 0
M  V30 4 Pb -0.4715 -5.2154 0.3820 0
M  V30 5 Pb 1.3710 -4.6155 -0.1204 0
M  V30 6 Pd 1.8410 3.0889 -5.5630 0
M  V30 7 Pb 1.5448 3.6973 -4.8218 0
M  V30 8 Pb 2.0911 2.5672 -6.3695 0
M  V30 9 Pb 2.8141 3.2928 -5.4518 0
M  V30 10 Pb 0.9132 2.7206 -5.6818 0
M  V30 11 Pd -0.3749 3.0896 5.6641 0
M  V30 12 Pb 0.0972 2.1835 5.6706 0
M  V30 13 Pb 0.3187 3.4753 5.0540 0
M  V30 14 Pb -0.8805 3.9495 5.6358 0
M  V30 15 Pb -1.0583 2.7437 6.2929 0
M  V30 16 Pd -3.9524 3.8749 2.4326 0
M  V30 17 Pb -3.7447 4.5229 3.1628 0
M  V30 18 Pb -4.3159 3.2118 3.0852 0
M  V30 19 Pb -3.5481 4.5237 1.7898 0
M  V30 20 Pb -4.1136 3.1844 1.7247 0
M  V30 21 Pd 1.0607 4.7307 0.1741 0
M  V30 22 Pb 0.9451 4.8520 -0.8147 0
M  V30 23 Pb 1.2323 4.6711 1.1608 0
M  V30 24 Pb 0.1653 5.1649 0.2859 0
M  V30 25 Pb 1.9511 4.3021 0.0435 0
M  V30 26 Pd -4.3662 -3.3877 2.5945 0
M  V30 27 Pb -4.6478 -2.6646 3.2233 0
M  V30 28 Pb -4.2098 -4.0327 3.3398 0
M  V30 29 Pb -4.0441 -4.1031 1.9783 0
M  V30 30 Pb -4.4588 -2.7110 1.8612 0
M  V30 31 Pd -0.5655 -2.9792 5.6199 0
M  V30 32 Pb 0.0890 -3.4017 4.9889 0
M  V30 33 Pb -1.1369 -3.7969 5.6023 0
M  V30 34 Pb -1.2144 -2.5931 6.2617 0
M  V30 35 Pb -0.0320 -2.1082 5.6311 0
M  V30 36 Pd 5.3684 -0.2421 -3.7109 0
M  V30 37 Pb 5.3647 0.3808 -2.9338 0
M  V30 38 Pb 5.3462 -0.8949 -4.4717 0
M  V30 39 Pb 5.4616 0.5772 -4.2856 0
M  V30 40 Pb 5.2354 -1.0219 -3.0978 0
M  V30 41 Pd 0.3960 -3.3558 -7.4581 0
M  V30 42 Pb 0.7838 -2.7068 -8.0992 0
M  V30 43 Pb 0.0557 -3.9673 -6.7463 0
M  V30 44 Pb 1.2929 -3.7891 -7.4554 0
M  V30 45 Pb -0.3560 -2.7088 -7.3134 0
M  V30 46 Ag 2.6164 3.9716 -0.0340 0
M  V30 47 Fe 4.0084 2.4292 -1.1755 0
M  V30 48 Ag 5.3337 0.8688 -2.3706 0
M  V30 49 Ag -4.5640 2.6597 3.5260 0
M  V30 50 Fe -4.7597 0.3014 3.7063 0
M  V30 51 Ag -4.8311 -2.0698 3.6395 0
M  V30 52 Ag -1.5320 2.3843 6.7295 0
M  V30 53 Fe -1.9580 0.0960 7.0606 0
M  V30 54 Ag -1.6628 -2.2092 6.7042 0
M  V30 55 Ag 0.2820 2.3262 -5.8149 0
M  V30 56 Fe -0.4428 0.1557 -6.4780 0
M  V30 57 Ag -0.7773 -2.1040 -7.1538 0
M  V30 58 Ag 2.2085 2.1666 -6.9831 0
M  V30 59 Fe 1.7730 0.0575 -7.9534 0
M  V30 60 Ag 1.1174 -2.1540 -8.4602 0
M  V30 61 Ag -4.2299 2.6007 1.2647 0
M  V30 62 Fe -4.3920 0.2295 1.1921 0
M  V30 63 Ag -4.5089 -2.1383 1.3761 0
M  V30 64 Ag 2.0691 -4.4131 -0.3120 0
M  V30 65 Fe 3.5883 -3.0060 -1.4779 0
M  V30 66 Ag 5.1160 -1.6047 -2.6398 0
M  V30 67 Ag 5.2837 -1.4554 -4.9708 0
M  V30 68 Fe 3.7959 -2.7983 -6.2474 0
M  V30 69 Ag 2.0289 -3.9005 -7.3902 0
M  V30 70 Ag -0.0291 -5.2166 -1.5035 0
M  V30 71 Fe -0.1014 -4.8100 -3.8417 0
M  V30 72 Ag -0.1710 -4.4000 -6.1794 0
M  V30 73 Ba 1.2674 4.2086 -4.3428 0
M  V30 74 Ga 1.0994 4.5319 -2.9098 0
M  V30 75 Ba 0.8371 5.0225 -1.5397 0
M  V30 76 Ba 1.0305 -4.7245 1.7973 0
M  V30 77 Ga 0.7455 -4.2086 3.1540 0
M  V30 78 Ba 0.5970 -3.7408 4.5495 0
M  V30 79 Ba -3.2220 5.0378 1.3533 0
M  V30 80 Ga -1.8582 5.2507 0.8314 0
M  V30 81 Ba -0.5074 5.5004 0.2924 0
M  V30 82 Ba 0.4903 1.5203 5.6724 0
M  V30 83 Ga 0.3489 0.0274 5.6564 0
M  V30 84 Ba 0.4019 -1.4713 5.6438 0
M  V30 85 Ba -1.3122 4.5586 5.5907 0
M  V30 86 Ga -2.4328 4.8401 4.6795 0
M  V30 87 Ba -3.5268 4.9881 3.7065 0
M  V30 88 Ba 3.5653 3.3225 -5.4348 0
M  V30 89 Ga 4.5640 2.3047 -5.0325 0
M  V30 90 Ba 5.5221 1.2530 -4.6192 0
M  V30 91 Ba -1.1721 -5.4753 0.4574 0
M  V30 92 Ga -2.4652 -5.0507 1.0249 0
M  V30 93 Ba -3.7809 -4.6755 1.5751 0
M  V30 94 Ba -4.0150 -4.5176 3.8749 0
M  V30 95 Ga -2.8419 -4.5042 4.7630 0
M  V30 96 Ba -1.6308 -4.3581 5.5856 0
M  V30 97 Ba 0.8510 3.7980 4.6340 0
M  V30 98 Ga 1.0898 4.1933 3.2302 0
M  V30 99 Ba 1.4694 4.6448 1.8755 0
M  V30 END ATOM
M  V30 BEGIN BOND
M  V30 1 1 1 2
M  V30 2 1 1 3
M  V30 3 1 1 4
M  V30 4 1 1 5
M  V30 5 1 6 7
M  V30 6 1 6 8
M  V30 7 1 6 9
M  V30 8 1 6 10
M  V30 9 1 11 12
M  V30 10 1 11 13
M  V30 11 1 11 14
M  V30 12 1 11 15
M  V30 13 1 16 17
M  V30 14 1 16 18
M  V30 15 1 16 19
M  V30 16 1 16 20
M  V30 17 1 21 22
M  V30 18 1 21 23
M  V30 19 1 21 24
M  V30 20 1 21 25
M  V30 21 1 26 27
M  V30 22 1 26 28
M  V30 23 1 26 29
M  V30 24 1 26 30
M  V30 25 1 31 32
M  V30 26 1 31 33
M  V30 27 1 31 34
M  V30 28 1 31 35
M  V30 29 1 36 37
M  V30 30 1 36 38
M  V30 31 1 36 39
M  V30 32 1 36 40
M  V30 33 1 41 42
M  V30 34 1 41 43
M  V30 35 1 41 44
M  V30 36 1 41 45
M  V30 37 1 46 47
M  V30 38 1 47 48
M  V30 39 1 49 50
M  V30 40 1 50 51
M  V30 41 1 52 53
M  V30 42 1 53 54
M  V30 43 1 55 56
M  V30 44 1 56 57
M  V30 45 1 58 59
M  V30 46 1 59 60
M  V30 47 1 61 62
M  V30 48 1 62 63
M  V30 49 1 64 65
M  V30 50 1 65 66
M  V30 51 1 67 68
M  V30 52 1 68 69
M  V30 53 1 70 71
M  V30 54 1 71 72
M  V30 55 1 73 74
M  V30 56 1 74 75
M  V30 57 1 76 77
M  V30 58 1 77 78
M  V30 59 1 79 80
M  V30 60 1 80 81
M  V30 61 1 82 83
M  V30 62 1 83 84
M  V30 63 1 85 86
M  V30 64 1 86 87
M  V30 65 1 88 89
M  V30 66 1 89 90
M  V30 67 1 91 92
M  V30 68 1 92 93
M  V30 69 1 94 95
M  V30 70 1 95 96
M  V30 71 1 97 98
M  V30 72 1 98 99
M  V30 73 1 2 76
M  V30 74 1 3 70
M  V30 75 1 4 91
M  V30 76 1 5 64
M  V30 77 1 7 73
M  V30 78 1 8 58
M  V30 79 1 9 88
M  V30 80 1 10 55
M  V30 81 1 12 82
M  V30 82 1 13 97
M  V30 83 1 14 85
M  V30 84 1 15 52
M  V30 85 1 17 87
M  V30 86 1 18 49
M  V30 87 1 19 79
M  V30 88 1 20 61
M  V30 89 1 22 75
M  V30 90 1 23 99
M  V30 91 1 24 81
M  V30 92 1 25 46
M  V30 93 1 27 51
M  V30 94 1 28 94
M  V30 95 1 29 93
M  V30 96 1 30 63
M  V30 97 1 32 78
M  V30 98 1 33 96
M  V30 99 1 34 54
M  V30 100 1 35 84
M  V30 101 1 37 48
M  V30 102 1 38 67
M  V30 103 1 39 90
M  V30 104 1 40 66
M  V30 105 1 42 60
M  V30 106 1 43 72
M  V30 107 1 44 69
M  V30 108 1 45 57
M  V30 END BOND
M  V30 END CTAB
M  END

$$$$
