
     RDKit          3D

  0  0  0  0  0  0  0  0  0  0999 V3000
M  V30 BEGIN CTAB
M  V30 COUNTS 99 108 0 0 0
M  V30 BEGIN ATOM
M  V30 1 Pd -3.0133 -3.4229 1.6696 0
M  V30 2 Pb -3.8063 -2.8098 1.6945 0
M  V30 3 Pb -2.9262 -3.3874 2.6630 0
M  V30 4 Pb -3.1177 -3.5295 0.6819 0
M  V30 5 Pb -2.1723 -3.9636 1.6591 0
M  V30 6 Pd -1.2377 -3.3395 -6.1547 0
M  V30 7 Pb -0.8364 -3.2140 -7.0576 0
M  V30 8 Pb -0.3165 -3.5158 -5.8008 0
M  V30 9 Pb -1.6774 -3.4951 -5.2709 0
M  V30 10 Pb -2.1080 -2.9873 -6.4906 0
M  V30 11 Pd 2.0075 0.0266 -6.9699 0
M  V30 12 Pb 2.2521 0.6409 -6.2202 0
M  V30 13 Pb 2.2969 -0.7846 -6.4550 0
M  V30 14 Pb 1.5626 0.7849 -7.4441 0
M  V30 15 Pb 1.7482 -0.5735 -7.7196 0
M  V30 16 Pd -3.5413 1.8329 0.6254 0
M  V30 17 Pb -2.8968 2.5231 0.3239 0
M  V30 18 Pb -3.6783 2.3718 1.4600 0
M  V30 19 Pb -3.4498 1.3425 -0.2655 0
M  V30 20 Pb -4.1727 1.1199 0.9424 0
M  V30 21 Pd 4.3853 2.0258 0.3122 0
M  V30 22 Pb 4.7412 1.8637 1.2334 0
M  V30 23 Pb 3.9581 2.8761 0.6137 0
M  V30 24 Pb 4.0564 2.1982 -0.6156 0
M  V30 25 Pb 4.7118 1.1200 0.0481 0
M  V30 26 Pd -2.3394 1.4830 -5.4072 0
M  V30 27 Pb -2.6726 1.1318 -4.5075 0
M  V30 28 Pb -1.8211 2.1909 -4.9459 0
M  V30 29 Pb -1.9423 1.8081 -6.2671 0
M  V30 30 Pb -2.8687 0.7762 -5.8842 0
M  V30 31 Pd 0.5987 -0.3692 7.4649 0
M  V30 32 Pb -0.2027 0.1886 7.6705 0
M  V30 33 Pb 1.3936 -0.9486 7.2738 0
M  V30 34 Pb 1.1577 0.4596 7.4938 0
M  V30 35 Pb -0.0093 -1.1464 7.3329 0
M  V30 36 Pd 4.0770 -2.1653 3.2763 0
M  V30 37 Pb 3.8462 -2.2791 4.2452 0
M  V30 38 Pb 4.3606 -2.0619 2.3209 0
M  V30 39 Pb 3.5045 -2.9464 3.0255 0
M  V30 40 Pb 4.5861 -1.3349 3.4952 0
M  V30 41 Pd -0.8482 3.8825 5.1924 0
M  V30 42 Pb -1.7080 3.9731 4.6859 0
M  V30 43 Pb -0.0004 3.7354 5.7088 0
M  V30 44 Pb -1.3511 3.4454 5.9328 0
M  V30 45 Pb -0.3172 4.3039 4.4583 0
M  V30 46 Ag -2.4219 2.9838 -0.0033 0
M  V30 47 Fe -1.6610 3.1949 -2.2198 0
M  V30 48 Ag -1.4953 2.6920 -4.5125 0
M  V30 49 Ag -2.8243 -3.4106 3.4038 0
M  V30 50 Fe -1.7047 -2.6000 5.3307 0
M  V30 51 Ag -0.5054 -1.6738 7.1545 0
M  V30 52 Ag 2.4169 1.1318 -5.6781 0
M  V30 53 Fe 3.1239 1.6945 -3.4823 0
M  V30 54 Ag 3.8203 2.3530 -1.3098 0
M  V30 55 Ag -1.5081 -4.3090 1.7015 0
M  V30 56 Fe 0.7864 -4.0049 2.2349 0
M  V30 57 Ag 3.0324 -3.4884 2.8097 0
M  V30 58 Ag 3.5672 3.4643 0.8613 0
M  V30 59 Fe 1.8548 4.1308 2.3633 0
M  V30 60 Ag 0.1308 4.5880 3.9293 0
M  V30 61 Ag -3.2235 -3.6515 -0.0492 0
M  V30 62 Fe -2.5668 -3.5929 -2.3299 0
M  V30 63 Ag -2.0851 -3.6197 -4.6544 0
M  V30 64 Ba -0.8029 0.6126 7.8087 0
M  V30 65 Ga -1.2911 1.8511 7.1854 0
M  V30 66 Ba -1.6876 3.0852 6.4926 0
M  V30 67 Ba -3.8022 2.8315 2.0435 0
M  V30 68 Ga -3.0585 3.3999 3.1879 0
M  V30 69 Ba -2.3815 4.0088 4.3527 0
M  V30 70 Ba -3.4334 0.9317 -0.9168 0
M  V30 71 Ga -3.1370 0.9715 -2.3854 0
M  V30 72 Ba -2.9027 0.7927 -3.8548 0
M  V30 73 Ba -2.7233 -2.6211 -6.7061 0
M  V30 74 Ga -3.0425 -1.1955 -6.4954 0
M  V30 75 Ba -3.2666 0.2401 -6.2338 0
M  V30 76 Ba 1.9736 -1.4132 7.1588 0
M  V30 77 Ga 2.8255 -1.8654 6.0390 0
M  V30 78 Ba 3.7238 -2.3742 4.9815 0
M  V30 79 Ba 0.4030 -3.5398 -5.5788 0
M  V30 80 Ga 1.4631 -2.5274 -5.7930 0
M  V30 81 Ba 2.4151 -1.4300 -6.0830 0
M  V30 82 Ba -0.5104 -3.0976 -7.7179 0
M  V30 83 Ga 0.5046 -2.1022 -8.0743 0
M  V30 84 Ba 1.5079 -1.0470 -8.2408 0
M  V30 85 Ba -4.3796 -2.3225 1.7163 0
M  V30 86 Ga -4.5134 -0.8746 1.4426 0
M  V30 87 Ba -4.6410 0.5737 1.1675 0
M  V30 88 Ba 1.5131 1.1201 7.4628 0
M  V30 89 Ga 1.1089 2.3775 6.7989 0
M  V30 90 Ba 0.6234 3.5895 6.1055 0
M  V30 91 Ba 4.9014 0.4109 -0.0987 0
M  V30 92 Ga 4.7695 -0.8016 0.7316 0
M  V30 93 Ba 4.6077 -1.9712 1.6166 0
M  V30 94 Ba 5.0245 1.7214 1.9139 0
M  V30 95 Ga 4.9987 0.5380 2.7930 0
M  V30 96 Ba 4.9296 -0.6815 3.6184 0
M  V30 97 Ba 1.1323 1.3070 -7.7661 0
M  V30 98 Ga -0.2265 1.7309 -7.3762 0
M  V30 99 Ba -1.5751 2.0579 -6.8735 0
M  V30 END ATOM
M  V30 BEGIN BOND
M  V30 1 1 1 2
M  V30 2 1 1 3
M  V30 3 1 1 4
M  V30 4 1 1 5
M  V30 5 1 6 7
M  V30 6 1 6 8
M  V30 7 1 6 9
M  V30 8 1 6 10
M  V30 9 1 11 12
M  V30 10 1 11 13
M  V30 11 1 11 14
M  V30 12 1 11 15
M  V30 13 1 16 17
M  V30 14 1 16 18
M  V30 15 1 16 19
M  V30 16 1 16 20
M  V30 17 1 21 22
M  V30 18 1 21 23
M  V30 19 1 21 24
M  V30 20 1 21 25
M  V30 21 1 26 27
M  V30 22 1 26 28
M  V30 23 1 26 29
M  V30 24 1 26 30
M  V30 25 1 31 32
M  V30 26 1 31 33
M  V30 27 1 31 34
M  V30 28 1 31 35
M  V30 29 1 36 37
M  V30 30 1 36 38
M  V30 31 1 36 39
M  V30 32 1 36 40
M  V30 33 1 41 42
M  V30 34 1 41 43
M  V30 35 1 41 44
M  V30 36 1 41 45
M  V30 37 1 46 47
M  V30 38 1 47 48
M  V30 39 1 49 50
M  V30 40 1 50 51
M  V30 41 1 52 53
M  V30 42 1 53 54
M  V30 43 1 55 56
M  V30 44 1 56 57
M  V30 45 1 58 59
M  V30 46 1 59 60
M  V30 47 1 61 62
M  V30 48 1 62 63
M  V30 49 1 64 65
M  V30 50 1 65 66
M  V30 51 1 67 68
M  V30 52 1 68 69
M  V30 53 1 70 71
M  V30 54 1 71 72
M  V30 55 1 73 74
M  V30 56 1 74 75
M  V30 57 1 76 77
M  V30 58 1 77 78
M  V30 59 1 79 80
M  V30 60 1 80 81
M  V30 61 1 82 83
M  V30 62 1 83 84
M  V30 63 1 85 86
M  V30 64 1 86 87
M  V30 65 1 88 89
M  V30 66 1 89 90
M  V30 67 1 91 92
M  V30 68 1 92 93
M  V30 69 1 94 95
M  V30 70 1 95 96
M  V30 71 1 97 98
M  V30 72 1 98 99
M  V30 73 1 2 85
M  V30 74 1 3 49
M  V30 75 1 4 61
M  V30 76 1 5 55
M  V30 77 1 7 82
M  V30 78 1 8 79
M  V30 79 1 9 63
M  V30 80 1 10 73
M  V30 81 1 12 52
M  V30 82 1 13 81
M  V30 83 1 14 97
M  V30 84 1 15 84
M  V30 85 1 17 46
M  V30 86 1 18 67
M  V30 87 1 19 70
M  V30 88 1 20 87
M  V30 89 1 22 94
M  V30 90 1 23 58
M  V30 91 1 24 54
M  V30 92 1 25 91
M  V30 93 1 27 72
M  V30 94 1 28 48
M  V30 95 1 29 99
M  V30 96 1 30 75
M  V30 97 1 32 64
M  V30 98 1 33 76
M  V30 99 1 34 88
M  V30 100 1 35 51
M  V30 101 1 37 78
M  V30 102 1 38 93
M  V30 103 1 39 57
M  V30 104 1 40 96
M  V30 105 1 42 69
M  V30 106 1 43 90
M  V30 107 1 44 66
M  V30 108 1 45 60
M  V30 END BOND
M  V30 END CTAB
M  END

$$$$
