
     RDKit          3D

  0  0  0  0  0  0  0  0  0  0999 V3000
M  V30 BEGIN CTAB
M  V30 COUNTS 99 108 0 0 0
M  V30 BEGIN ATOM
M  V30 1 Pd -4.3718 -0.5758 6.2100 0
M  V30 2 Pb -5.2005 -0.0920 5.9403 0
M  V30 3 Pb -3.4854 -1.0609 6.3231 0
M  V30 4 Pb -4.8235 -1.4472 6.0581 0
M  V30 5 Pb -3.9418 0.3159 6.3515 0
M  V30 6 Pd 5.5869 -2.0538 -0.7894 0
M  V30 7 Pb 5.9230 -2.0307 -1.7293 0
M  V30 8 Pb 5.2460 -2.9826 -0.9317 0
M  V30 9 Pb 5.1971 -2.0596 0.1318 0
M  V30 10 Pb 5.9795 -1.1451 -0.6464 0
M  V30 11 Pd -2.3119 -0.0509 -3.1625 0
M  V30 12 Pb -2.4201 0.9371 -3.0328 0
M  V30 13 Pb -2.2545 -1.0449 -3.2827 0
M  V30 14 Pb -3.0141 -0.2140 -2.4706 0
M  V30 15 Pb -1.6556 0.1345 -3.8998 0
M  V30 16 Pd -5.2541 3.0577 0.1682 0
M  V30 17 Pb -4.6328 3.2477 -0.5946 0
M  V30 18 Pb -5.8415 2.8518 0.9499 0
M  V30 19 Pb -5.2503 2.0888 -0.0749 0
M  V30 20 Pb -5.2207 4.0128 0.4608 0
M  V30 21 Pd 4.2678 3.3666 -1.2282 0
M  V30 22 Pb 4.0774 3.4411 -0.2511 0
M  V30 23 Pb 4.4204 3.2931 -2.2132 0
M  V30 24 Pb 3.4725 3.9524 -1.3832 0
M  V30 25 Pb 5.0643 2.7948 -1.0347 0
M  V30 26 Pd 3.1548 -0.3434 -5.1412 0
M  V30 27 Pb 3.5293 0.5817 -5.0677 0
M  V30 28 Pb 2.8044 -1.2701 -5.2568 0
M  V30 29 Pb 4.0677 -0.7165 -4.9719 0
M  V30 30 Pb 2.2384 0.0154 -5.3310 0
M  V30 31 Pd -0.4664 -4.1552 3.5247 0
M  V30 32 Pb -0.2728 -4.7421 2.7368 0
M  V30 33 Pb -0.7026 -3.5770 4.3311 0
M  V30 34 Pb -1.3346 -4.6270 3.6237 0
M  V30 35 Pb 0.4225 -3.7016 3.4391 0
M  V30 36 Pd -1.4738 5.5188 2.7406 0
M  V30 37 Pb -2.3873 5.8421 2.4938 0
M  V30 38 Pb -1.7857 5.1990 3.6345 0
M  V30 39 Pb -1.1369 5.7545 1.8299 0
M  V30 40 Pb -0.5573 5.1802 2.9461 0
M  V30 41 Pd 0.8963 -4.6416 -2.2029 0
M  V30 42 Pb -0.0368 -4.3993 -2.4717 0
M  V30 43 Pb 1.8342 -4.8889 -1.9648 0
M  V30 44 Pb 0.5987 -5.0411 -1.3331 0
M  V30 45 Pb 1.1959 -4.3440 -3.1080 0
M  V30 46 Ag -5.0379 -2.1311 5.8770 0
M  V30 47 Fe -3.8770 -3.8723 4.8002 0
M  V30 48 Ag -2.0177 -4.8749 3.7619 0
M  V30 49 Ag -3.6704 1.0103 6.4341 0
M  V30 50 Fe -2.8213 2.9792 5.4133 0
M  V30 51 Ag -1.9808 4.8962 4.2916 0
M  V30 52 Ag 3.8668 3.5227 0.4620 0
M  V30 53 Fe 2.0711 4.1976 1.8580 0
M  V30 54 Ag 0.1397 4.9217 3.0305 0
M  V30 55 Ag 2.8690 4.3953 -1.4258 0
M  V30 56 Fe 0.9794 5.2008 -0.2348 0
M  V30 57 Ag -0.8311 5.8577 1.1537 0
M  V30 58 Ag -5.7520 0.2980 5.6222 0
M  V30 59 Fe -6.1623 1.5283 3.6363 0
M  V30 60 Ag -6.2366 2.6747 1.5609 0
M  V30 61 Ag 4.8676 -2.0716 0.8060 0
M  V30 62 Fe 2.9889 -2.7145 2.1111 0
M  V30 63 Ag 1.0955 -3.3710 3.3880 0
M  V30 64 Ba 6.1419 -1.9899 -2.4439 0
M  V30 65 Ga 5.4636 -1.5016 -3.6584 0
M  V30 66 Ba 4.7502 -1.0037 -4.8488 0
M  V30 67 Ba -2.8054 -1.4095 6.3900 0
M  V30 68 Ga -1.8776 -2.2959 5.6184 0
M  V30 69 Ba -0.8539 -3.1746 4.9691 0
M  V30 70 Ba 4.5084 3.2469 -2.9559 0
M  V30 71 Ga 4.1697 2.2484 -3.9877 0
M  V30 72 Ba 3.8398 1.2646 -5.0362 0
M  V30 73 Ba -2.2904 -1.7952 -3.3370 0
M  V30 74 Ga -1.4744 -2.9860 -3.0211 0
M  V30 75 Ba -0.7182 -4.2226 -2.7330 0
M  V30 76 Ba -3.5654 -0.3391 -1.9789 0
M  V30 77 Ga -4.3956 0.5079 -1.1040 0
M  V30 78 Ba -5.2250 1.3563 -0.2297 0
M  V30 79 Ba 2.5537 -1.9649 -5.3715 0
M  V30 80 Ga 1.9774 -3.0493 -4.5587 0
M  V30 81 Ba 1.3966 -4.1764 -3.8098 0
M  V30 82 Ba -1.2162 0.3340 -4.4795 0
M  V30 83 Ga 0.1870 0.2707 -4.9427 0
M  V30 84 Ba 1.5533 0.2693 -5.5096 0
M  V30 85 Ba 5.0185 -3.6897 -1.0329 0
M  V30 86 Ga 3.7685 -4.3730 -1.4109 0
M  V30 87 Ba 2.5342 -5.0857 -1.7863 0
M  V30 88 Ba -5.1780 4.7130 0.7251 0
M  V30 89 Ga -4.1388 5.4197 1.4967 0
M  V30 90 Ba -3.0637 6.0731 2.2662 0
M  V30 91 Ba -2.5190 1.6773 -2.9418 0
M  V30 92 Ga -3.3356 2.5261 -2.0490 0
M  V30 93 Ba -4.1512 3.3771 -1.1574 0
M  V30 94 Ba 6.3157 -0.4799 -0.5607 0
M  V30 95 Ga 5.9653 0.9443 -0.7152 0
M  V30 96 Ba 5.6628 2.3809 -0.8558 0
M  V30 97 Ba -0.1815 -5.2272 2.1703 0
M  V30 98 Ga 0.1274 -5.2474 0.7257 0
M  V30 99 Ba 0.4204 -5.4257 -0.7113 0
M  V30 END ATOM
M  V30 BEGIN BOND
M  V30 1 1 1 2
M  V30 2 1 1 3
M  V30 3 1 1 4
M  V30 4 1 1 5
M  V30 5 1 6 7
M  V30 6 1 6 8
M  V30 7 1 6 9
M  V30 8 1 6 10
M  V30 9 1 11 12
M  V30 10 1 11 13
M  V30 11 1 11 14
M  V30 12 1 11 15
M  V30 13 1 16 17
M  V30 14 1 16 18
M  V30 15 1 16 19
M  V30 16 1 16 20
M  V30 17 1 21 22
M  V30 18 1 21 23
M  V30 19 1 21 24
M  V30 20 1 21 25
M  V30 21 1 26 27
M  V30 22 1 26 28
M  V30 23 1 26 29
M  V30 24 1 26 30
M  V30 25 1 31 32
M  V30 26 1 31 33
M  V30 27 1 31 34
M  V30 28 1 31 35
M  V30 29 1 36 37
M  V30 30 1 36 38
M  V30 31 1 36 39
M  V30 32 1 36 40
M  V30 33 1 41 42
M  V30 34 1 41 43
M  V30 35 1 41 44
M  V30 36 1 41 45
M  V30 37 1 46 47
M  V30 38 1 47 48
M  V30 39 1 49 50
M  V30 40 1 50 51
M  V30 41 1 52 53
M  V30 42 1 53 54
M  V30 43 1 55 56
M  V30 44 1 56 57
M  V30 45 1 58 59
M  V30 46 1 59 60
M  V30 47 1 61 62
M  V30 48 1 62 63
M  V30 49 1 64 65
M  V30 50 1 65 66
M  V30 51 1 67 68
M  V30 52 1 68 69
M  V30 53 1 70 71
M  V30 54 1 71 72
M  V30 55 1 73 74
M  V30 56 1 74 75
M  V30 57 1 76 77
M  V30 58 1 77 78
M  V30 59 1 79 80
M  V30 60 1 80 81
M  V30 61 1 82 83
M  V30 62 1 83 84
M  V30 63 1 85 86
M  V30 64 1 86 87
M  V30 65 1 88 89
M  V30 66 1 89 90
M  V30 67 1 91 92
M  V30 68 1 92 93
M  V30 69 1 94 95
M  V30 70 1 95 96
M  V30 71 1 97 98
M  V30 72 1 98 99
M  V30 73 1 2 58
M  V30 74 1 3 67
M  V30 75 1 4 46
M  V30 76 1 5 49
M  V30 77 1 7 64
M  V30 78 1 8 85
M  V30 79 1 9 61
M  V30 80 1 10 94
M  V30 81 1 12 91
M  V30 82 1 13 73
M  V30 83 1 14 76
M  V30 84 1 15 82
M  V30 85 1 17 93
M  V30 86 1 18 60
M  V30 87 1 19 78
M  V30 88 1 20 88
M  V30 89 1 22 52
M  V30 90 1 23 70
M  V30 91 1 24 55
M  V30 92 1 25 96
M  V30 93 1 27 72
M  V30 94 1 28 79
M  V30 95 1 29 66
M  V30 96 1 30 84
M  V30 97 1 32 97
M  V30 98 1 33 69
M  V30 99 1 34 48
M  V30 100 1 35 63
M  V30 101 1 37 90
M  V30 102 1 38 51
M  V30 103 1 39 57
M  V30 104 1 40 54
M  V30 105 1 42 75
M  V30 106 1 43 87
M  V30 107 1 44 99
M  V30 108 1 45 81
M  V30 END BOND
M  V30 END CTAB
M  END

$$$$
