
     RDKit          3D

  0  0  0  0  0  0  0  0  0  0999 V3000
M  V30 BEGIN CTAB
M  V30 COUNTS 99 108 0 0 0
M  V30 BEGIN ATOM
M  V30 1 Pd -0.8838 3.7936 2.6533 0
M  V30 2 Pb -1.5559 4.2129 2.0405 0
M  V30 3 Pb -1.6190 3.5738 3.2971 0
M  V30 4 Pb -0.1327 4.0412 2.0434 0
M  V30 5 Pb -0.2046 3.3640 3.2474 0
M  V30 6 Pd -1.5914 -6.0909 4.6398 0
M  V30 7 Pb -1.4182 -6.0841 3.6556 0
M  V30 8 Pb -1.7941 -6.0929 5.6133 0
M  V30 9 Pb -0.6338 -6.2922 4.8487 0
M  V30 10 Pb -2.5230 -5.7441 4.4993 0
M  V30 11 Pd -1.3815 -0.5667 -5.3856 0
M  V30 12 Pb -1.3514 0.3867 -5.6853 0
M  V30 13 Pb -1.3564 -1.5191 -5.0916 0
M  V30 14 Pb -0.8339 -0.8710 -6.1641 0
M  V30 15 Pb -1.9239 -0.2877 -4.5904 0
M  V30 16 Pd 3.4937 0.2184 -6.3543 0
M  V30 17 Pb 2.9598 -0.4725 -6.8327 0
M  V30 18 Pb 3.9471 0.9823 -5.8632 0
M  V30 19 Pb 3.7302 -0.4238 -5.6196 0
M  V30 20 Pb 3.2863 0.8434 -7.0988 0
M  V30 21 Pd 1.8181 -3.5503 -2.0323 0
M  V30 22 Pb 1.1783 -4.0762 -1.4727 0
M  V30 23 Pb 1.1650 -3.6592 -2.7814 0
M  V30 24 Pb 2.5006 -3.0743 -2.5970 0
M  V30 25 Pb 2.4289 -3.4668 -1.2448 0
M  V30 26 Pd 2.5484 5.5496 -4.1619 0
M  V30 27 Pb 3.2553 4.8375 -4.3223 0
M  V30 28 Pb 1.7892 6.1792 -4.0045 0
M  V30 29 Pb 2.6214 5.4082 -3.1773 0
M  V30 30 Pb 2.4587 5.6760 -5.1437 0
M  V30 31 Pd -2.1860 4.1274 -2.8490 0
M  V30 32 Pb -2.4968 4.4126 -1.9397 0
M  V30 33 Pb -1.8237 5.0477 -3.0055 0
M  V30 34 Pb -2.5314 3.1993 -2.6987 0
M  V30 35 Pb -1.9052 3.8600 -3.7718 0
M  V30 36 Pd 2.2828 -2.6131 5.6069 0
M  V30 37 Pb 2.7492 -2.7734 4.7360 0
M  V30 38 Pb 1.8222 -2.3906 6.4695 0
M  V30 39 Pb 2.1911 -3.6079 5.7161 0
M  V30 40 Pb 2.3515 -1.6253 5.4745 0
M  V30 41 Pd -4.1809 -0.8226 7.9536 0
M  V30 42 Pb -4.0801 -1.7088 8.3923 0
M  V30 43 Pb -4.2255 0.0477 7.4624 0
M  V30 44 Pb -3.3667 -0.5504 8.4592 0
M  V30 45 Pb -4.7991 -1.2612 7.3011 0
M  V30 46 Ag -1.3222 -6.0797 2.9124 0
M  V30 47 Fe -0.2829 -5.2623 0.9402 0
M  V30 48 Ag 0.7025 -4.5049 -1.0830 0
M  V30 49 Ag 2.8621 -3.4177 -0.6343 0
M  V30 50 Fe 3.0026 -3.1482 1.7218 0
M  V30 51 Ag 3.0993 -2.8761 4.0798 0
M  V30 52 Ag -3.1922 -5.3959 4.4884 0
M  V30 53 Fe -4.3417 -3.5840 5.5169 0
M  V30 54 Ag -5.0950 -1.7129 6.7785 0
M  V30 55 Ag -2.0096 -6.0126 6.3202 0
M  V30 56 Fe -2.9823 -4.3624 7.7063 0
M  V30 57 Ag -3.9263 -2.3979 8.6225 0
M  V30 58 Ag 3.1301 1.3976 -7.5645 0
M  V30 59 Fe 2.6958 3.6840 -7.2085 0
M  V30 60 Ag 2.4164 5.6061 -5.8787 0
M  V30 61 Ag 0.4644 4.2253 1.6307 0
M  V30 62 Fe 1.5432 4.7605 -0.4139 0
M  V30 63 Ag 2.6568 5.2996 -2.4388 0
M  V30 64 Ag 0.3345 3.0422 3.6568 0
M  V30 65 Fe 1.3595 1.0893 4.5357 0
M  V30 66 Ag 2.3634 -0.8798 5.4026 0
M  V30 67 Ag 1.4819 -2.1011 7.0762 0
M  V30 68 Fe -0.5213 -1.2624 8.0425 0
M  V30 69 Ag -2.6724 -0.5287 8.7359 0
M  V30 70 Ag -2.1715 3.4345 3.7873 0
M  V30 71 Fe -3.2084 2.0635 5.4278 0
M  V30 72 Ag -4.2381 0.6853 7.0669 0
M  V30 73 Ba -2.0766 4.5233 1.5966 0
M  V30 74 Ga -2.3853 4.5696 0.1524 0
M  V30 75 Ba -2.7527 4.6575 -1.2759 0
M  V30 76 Ba 3.9627 -0.9002 -5.0838 0
M  V30 77 Ga 3.4359 -1.8122 -4.0431 0
M  V30 78 Ba 3.0823 -2.7615 -2.9636 0
M  V30 79 Ba 4.2905 1.5662 -5.5075 0
M  V30 80 Ga 3.9818 2.9308 -4.9824 0
M  V30 81 Ba 3.7950 4.3033 -4.4217 0
M  V30 82 Ba -2.3292 -0.0699 -3.9953 0
M  V30 83 Ga -2.5559 1.2121 -3.2961 0
M  V30 84 Ba -2.7794 2.4965 -2.6002 0
M  V30 85 Ba -1.3140 1.1072 -5.8900 0
M  V30 86 Ga -1.5129 2.3873 -5.1835 0
M  V30 87 Ba -1.7133 3.6635 -4.4706 0
M  V30 88 Ba -0.4040 -1.1624 -6.7046 0
M  V30 89 Ga 1.0363 -1.0757 -6.9941 0
M  V30 90 Ba 2.4846 -0.9154 -7.1989 0
M  V30 91 Ba 0.0805 -6.3716 5.0676 0
M  V30 92 Ga 1.1233 -5.3773 5.4054 0
M  V30 93 Ba 2.1468 -4.3615 5.7388 0
M  V30 94 Ba 1.1821 6.5981 -3.8755 0
M  V30 95 Ga -0.1887 6.2043 -3.4995 0
M  V30 96 Ba -1.5345 5.7307 -3.1247 0
M  V30 97 Ba -1.2705 -2.2441 -4.9309 0
M  V30 98 Ga -0.3245 -3.0063 -4.0963 0
M  V30 99 Ba 0.6123 -3.7904 -3.2718 0
M  V30 END ATOM
M  V30 BEGIN BOND
M  V30 1 1 1 2
M  V30 2 1 1 3
M  V30 3 1 1 4
M  V30 4 1 1 5
M  V30 5 1 6 7
M  V30 6 1 6 8
M  V30 7 1 6 9
M  V30 8 1 6 10
M  V30 9 1 11 12
M  V30 10 1 11 13
M  V30 11 1 11 14
M  V30 12 1 11 15
M  V30 13 1 16 17
M  V30 14 1 16 18
M  V30 15 1 16 19
M  V30 16 1 16 20
M  V30 17 1 21 22
M  V30 18 1 21 23
M  V30 19 1 21 24
M  V30 20 1 21 25
M  V30 21 1 26 27
M  V30 22 1 26 28
M  V30 23 1 26 29
M  V30 24 1 26 30
M  V30 25 1 31 32
M  V30 26 1 31 33
M  V30 27 1 31 34
M  V30 28 1 31 35
M  V30 29 1 36 37
M  V30 30 1 36 38
M  V30 31 1 36 39
M  V30 32 1 36 40
M  V30 33 1 41 42
M  V30 34 1 41 43
M  V30 35 1 41 44
M  V30 36 1 41 45
M  V30 37 1 46 47
M  V30 38 1 47 48
M  V30 39 1 49 50
M  V30 40 1 50 51
M  V30 41 1 52 53
M  V30 42 1 53 54
M  V30 43 1 55 56
M  V30 44 1 56 57
M  V30 45 1 58 59
M  V30 46 1 59 60
M  V30 47 1 61 62
M  V30 48 1 62 63
M  V30 49 1 64 65
M  V30 50 1 65 66
M  V30 51 1 67 68
M  V30 52 1 68 69
M  V30 53 1 70 71
M  V30 54 1 71 72
M  V30 55 1 73 74
M  V30 56 1 74 75
M  V30 57 1 76 77
M  V30 58 1 77 78
M  V30 59 1 79 80
M  V30 60 1 80 81
M  V30 61 1 82 83
M  V30 62 1 83 84
M  V30 63 1 85 86
M  V30 64 1 86 87
M  V30 65 1 88 89
M  V30 66 1 89 90
M  V30 67 1 91 92
M  V30 68 1 92 93
M  V30 69 1 94 95
M  V30 70 1 95 96
M  V30 71 1 97 98
M  V30 72 1 98 99
M  V30 73 1 2 73
M  V30 74 1 3 70
M  V30 75 1 4 61
M  V30 76 1 5 64
M  V30 77 1 7 46
M  V30 78 1 8 55
M  V30 79 1 9 91
M  V30 80 1 10 52
M  V30 81 1 12 85
M  V30 82 1 13 97
M  V30 83 1 14 88
M  V30 84 1 15 82
M  V30 85 1 17 90
M  V30 86 1 18 79
M  V30 87 1 19 76
M  V30 88 1 20 58
M  V30 89 1 22 48
M  V30 90 1 23 99
M  V30 91 1 24 78
M  V30 92 1 25 49
M  V30 93 1 27 81
M  V30 94 1 28 94
M  V30 95 1 29 63
M  V30 96 1 30 60
M  V30 97 1 32 75
M  V30 98 1 33 96
M  V30 99 1 34 84
M  V30 100 1 35 87
M  V30 101 1 37 51
M  V30 102 1 38 67
M  V30 103 1 39 93
M  V30 104 1 40 66
M  V30 105 1 42 57
M  V30 106 1 43 72
M  V30 107 1 44 69
M  V30 108 1 45 54
M  V30 END BOND
M  V30 END CTAB
M  END

$$$$
