
     RDKit          3D

  0  0  0  0  0  0  0  0  0  0999 V3000
M  V30 BEGIN CTAB
M  V30 COUNTS 99 108 0 0 0
M  V30 BEGIN ATOM
M  V30 1 Pd 4.0893 -1.7340 1.8584 0
M  V30 2 Pb 3.6994 -1.8574 0.9449 0
M  V30 3 Pb 4.9687 -1.5010 1.4364 0
M  V30 4 Pb 3.2451 -2.0235 2.3122 0
M  V30 5 Pb 4.4368 -1.5000 2.7657 0
M  V30 6 Pd 3.6424 5.7546 -2.8759 0
M  V30 7 Pb 2.7231 5.3867 -3.0127 0
M  V30 8 Pb 3.9271 5.4139 -3.7685 0
M  V30 9 Pb 3.3870 6.0328 -1.9511 0
M  V30 10 Pb 4.6008 6.0347 -2.7076 0
M  V30 11 Pd -5.7634 -0.6080 -3.8644 0
M  V30 12 Pb -4.8504 -0.7074 -4.3072 0
M  V30 13 Pb -5.5711 0.3294 -3.5621 0
M  V30 14 Pb -6.6037 -0.6250 -3.3265 0
M  V30 15 Pb -6.0120 -1.5092 -4.1969 0
M  V30 16 Pd -7.1781 -2.8423 2.9707 0
M  V30 17 Pb -7.6705 -2.6376 2.1248 0
M  V30 18 Pb -7.1190 -3.8222 2.7678 0
M  V30 19 Pb -7.1117 -1.8574 3.1116 0
M  V30 20 Pb -6.6672 -3.0123 3.8101 0
M  V30 21 Pd -3.0206 2.6003 -0.0275 0
M  V30 22 Pb -2.3110 2.8689 -0.6810 0
M  V30 23 Pb -3.6760 2.6871 -0.7793 0
M  V30 24 Pb -3.7554 2.3754 0.6129 0
M  V30 25 Pb -2.3737 2.4761 0.7291 0
M  V30 26 Pd -2.8607 -5.3707 3.2219 0
M  V30 27 Pb -3.7357 -5.7745 2.9409 0
M  V30 28 Pb -2.3766 -5.7809 2.4484 0
M  V30 29 Pb -2.0240 -4.8882 3.4814 0
M  V30 30 Pb -3.3341 -4.9543 3.9951 0
M  V30 31 Pd -1.0331 -3.9802 -3.7410 0
M  V30 32 Pb -0.2594 -3.4410 -3.4092 0
M  V30 33 Pb -0.7646 -4.7270 -3.1368 0
M  V30 34 Pb -1.7655 -4.5525 -4.0889 0
M  V30 35 Pb -1.4273 -3.1783 -4.2329 0
M  V30 36 Pd 3.7070 2.8940 3.9904 0
M  V30 37 Pb 2.7503 2.6028 3.9941 0
M  V30 38 Pb 4.6591 3.1804 3.9077 0
M  V30 39 Pb 3.4306 3.7338 3.5249 0
M  V30 40 Pb 4.0119 2.0349 4.4063 0
M  V30 41 Pd 8.5010 3.3468 -1.5219 0
M  V30 42 Pb 8.4472 3.1282 -2.4931 0
M  V30 43 Pb 8.6137 2.3855 -1.2770 0
M  V30 44 Pb 8.4994 3.5656 -0.5482 0
M  V30 45 Pb 8.2079 4.2881 -1.7419 0
M  V30 46 Ag 2.0512 5.0646 -3.0957 0
M  V30 47 Fe 0.1165 4.0903 -2.1193 0
M  V30 48 Ag -1.8502 3.0981 -1.2291 0
M  V30 49 Ag 3.4232 -1.8695 0.2464 0
M  V30 50 Fe 1.8597 -2.4982 -1.4279 0
M  V30 51 Ag 0.3491 -3.0750 -3.1683 0
M  V30 52 Ag -1.9470 2.3443 1.3357 0
M  V30 53 Fe 0.0521 2.3880 2.6212 0
M  V30 54 Ag 2.0272 2.4090 3.9441 0
M  V30 55 Ag -6.9952 -1.1196 3.1344 0
M  V30 56 Fe -5.6843 0.6073 2.1683 0
M  V30 57 Ag -4.2976 2.2145 1.1059 0
M  V30 58 Ag -6.0889 -2.2071 -4.4259 0
M  V30 59 Fe -4.5413 -3.9685 -4.5827 0
M  V30 60 Ag -2.3856 -4.8695 -4.3337 0
M  V30 61 Ag 4.2852 5.0870 -4.3310 0
M  V30 62 Fe 6.3349 3.9216 -4.2867 0
M  V30 63 Ag 8.2508 3.0701 -3.2070 0
M  V30 64 Ag -7.1826 -0.7454 -2.8681 0
M  V30 65 Fe -7.7159 -1.5574 -0.7021 0
M  V30 66 Ag -8.0074 -2.4004 1.4981 0
M  V30 67 Ag 3.2099 6.1846 -1.2395 0
M  V30 68 Fe 3.1876 5.3469 0.9814 0
M  V30 69 Ag 3.2444 4.3439 3.1320 0
M  V30 70 Ag 2.6645 -2.2555 2.7290 0
M  V30 71 Fe 0.6168 -3.3895 3.1365 0
M  V30 72 Ag -1.4235 -4.4819 3.6743 0
M  V30 73 Ag 5.3639 3.3882 3.7708 0
M  V30 74 Fe 6.9937 3.5914 2.0596 0
M  V30 75 Ag 8.4433 3.7002 0.1853 0
M  V30 76 Ag 5.6361 -1.3574 1.1190 0
M  V30 77 Fe 7.1572 0.1105 0.0333 0
M  V30 78 Ag 8.5856 1.6745 -1.0438 0
M  V30 79 Ag -1.9893 -6.0565 1.8678 0
M  V30 80 Fe -1.2594 -5.7556 -0.3711 0
M  V30 81 Ag -0.6569 -5.2461 -2.6098 0
M  V30 82 Ba -6.9876 -4.5493 2.6229 0
M  V30 83 Ga -5.7281 -5.3261 2.6719 0
M  V30 84 Ba -4.4225 -6.0200 2.7493 0
M  V30 85 Ba 5.3274 6.2354 -2.5922 0
M  V30 86 Ga 6.6222 5.5836 -2.2451 0
M  V30 87 Ba 7.9423 4.9831 -1.9005 0
M  V30 88 Ba -4.1619 -0.8077 -4.6373 0
M  V30 89 Ga -2.9719 -1.7191 -4.5688 0
M  V30 90 Ba -1.7337 -2.5662 -4.5864 0
M  V30 91 Ba -6.2532 -3.1581 4.4147 0
M  V30 92 Ga -4.9826 -3.8873 4.5428 0
M  V30 93 Ba -3.7157 -4.6341 4.5525 0
M  V30 94 Ba 4.6331 -1.2701 3.4516 0
M  V30 95 Ga 4.4737 0.0456 4.1024 0
M  V30 96 Ba 4.2801 1.3891 4.6833 0
M  V30 97 Ba -5.4884 1.0512 -3.3617 0
M  V30 98 Ga -4.7990 1.8711 -2.3433 0
M  V30 99 Ba -4.1449 2.7618 -1.3615 0
M  V30 END ATOM
M  V30 BEGIN BOND
M  V30 1 1 1 2
M  V30 2 1 1 3
M  V30 3 1 1 4
M  V30 4 1 1 5
M  V30 5 1 6 7
M  V30 6 1 6 8
M  V30 7 1 6 9
M  V30 8 1 6 10
M  V30 9 1 11 12
M  V30 10 1 11 13
M  V30 11 1 11 14
M  V30 12 1 11 15
M  V30 13 1 16 17
M  V30 14 1 16 18
M  V30 15 1 16 19
M  V30 16 1 16 20
M  V30 17 1 21 22
M  V30 18 1 21 23
M  V30 19 1 21 24
M  V30 20 1 21 25
M  V30 21 1 26 27
M  V30 22 1 26 28
M  V30 23 1 26 29
M  V30 24 1 26 30
M  V30 25 1 31 32
M  V30 26 1 31 33
M  V30 27 1 31 34
M  V30 28 1 31 35
M  V30 29 1 36 37
M  V30 30 1 36 38
M  V30 31 1 36 39
M  V30 32 1 36 40
M  V30 33 1 41 42
M  V30 34 1 41 43
M  V30 35 1 41 44
M  V30 36 1 41 45
M  V30 37 1 46 47
M  V30 38 1 47 48
M  V30 39 1 49 50
M  V30 40 1 50 51
M  V30 41 1 52 53
M  V30 42 1 53 54
M  V30 43 1 55 56
M  V30 44 1 56 57
M  V30 45 1 58 59
M  V30 46 1 59 60
M  V30 47 1 61 62
M  V30 48 1 62 63
M  V30 49 1 64 65
M  V30 50 1 65 66
M  V30 51 1 67 68
M  V30 52 1 68 69
M  V30 53 1 70 71
M  V30 54 1 71 72
M  V30 55 1 73 74
M  V30 56 1 74 75
M  V30 57 1 76 77
M  V30 58 1 77 78
M  V30 59 1 79 80
M  V30 60 1 80 81
M  V30 61 1 82 83
M  V30 62 1 83 84
M  V30 63 1 85 86
M  V30 64 1 86 87
M  V30 65 1 88 89
M  V30 66 1 89 90
M  V30 67 1 91 92
M  V30 68 1 92 93
M  V30 69 1 94 95
M  V30 70 1 95 96
M  V30 71 1 97 98
M  V30 72 1 98 99
M  V30 73 1 2 49
M  V30 74 1 3 76
M  V30 75 1 4 70
M  V30 76 1 5 94
M  V30 77 1 7 46
M  V30 78 1 8 61
M  V30 79 1 9 67
M  V30 80 1 10 85
M  V30 81 1 12 88
M  V30 82 1 13 97
M  V30 83 1 14 64
M  V30 84 1 15 58
M  V30 85 1 17 66
M  V30 86 1 18 82
M  V30 87 1 19 55
M  V30 88 1 20 91
M  V30 89 1 22 48
M  V30 90 1 23 99
M  V30 91 1 24 57
M  V30 92 1 25 52
M  V30 93 1 27 84
M  V30 94 1 28 79
M  V30 95 1 29 72
M  V30 96 1 30 93
M  V30 97 1 32 51
M  V30 98 1 33 81
M  V30 99 1 34 60
M  V30 100 1 35 90
M  V30 101 1 37 54
M  V30 102 1 38 73
M  V30 103 1 39 69
M  V30 104 1 40 96
M  V30 105 1 42 63
M  V30 106 1 43 78
M  V30 107 1 44 75
M  V30 108 1 45 87
M  V30 END BOND
M  V30 END CTAB
M  END

$$$$
