
     RDKit          3D

  0  0  0  0  0  0  0  0  0  0999 V3000
M  V30 BEGIN CTAB
M  V30 COUNTS 99 108 0 0 0
M  V30 BEGIN ATOM
M  V30 1 Pd -1.7516 -3.0866 3.8068 0
M  V30 2 Pb -1.1297 -2.8931 4.5633 0
M  V30 3 Pb -2.1987 -2.2030 3.9403 0
M  V30 4 Pb -1.3002 -3.9744 3.7036 0
M  V30 5 Pb -2.3785 -3.2856 3.0515 0
M  V30 6 Pd -4.1750 5.6633 -4.4113 0
M  V30 7 Pb -3.2788 5.5474 -4.8446 0
M  V30 8 Pb -5.0675 5.7706 -3.9913 0
M  V30 9 Pb -4.6444 5.0754 -5.0646 0
M  V30 10 Pb -3.7841 6.0273 -3.5638 0
M  V30 11 Pd 6.5345 2.9553 0.4100 0
M  V30 12 Pb 7.1214 2.1938 0.6910 0
M  V30 13 Pb 5.8593 3.6353 0.1258 0
M  V30 14 Pb 6.6096 2.6978 -0.5498 0
M  V30 15 Pb 6.3562 3.1047 1.3807 0
M  V30 16 Pd 3.0753 -2.2943 -2.7680 0
M  V30 17 Pb 3.6184 -1.5465 -3.1442 0
M  V30 18 Pb 3.8096 -2.9208 -3.0060 0
M  V30 19 Pb 2.4064 -1.6463 -2.4016 0
M  V30 20 Pb 2.5857 -3.0545 -2.3071 0
M  V30 21 Pd 0.2859 2.6455 -3.5807 0
M  V30 22 Pb 0.0345 3.3367 -4.2588 0
M  V30 23 Pb 0.8916 3.2969 -3.1196 0
M  V30 24 Pb 0.4857 1.9528 -2.8890 0
M  V30 25 Pb -0.3172 1.9731 -4.0062 0
M  V30 26 Pd 3.0998 -5.7026 1.9697 0
M  V30 27 Pb 3.9419 -5.7758 1.4461 0
M  V30 28 Pb 3.6261 -5.8161 2.8147 0
M  V30 29 Pb 2.2286 -5.7592 2.4646 0
M  V30 30 Pb 2.6046 -5.5107 1.1048 0
M  V30 31 Pd 5.4688 -2.1396 5.2450 0
M  V30 32 Pb 4.6289 -2.1888 5.7801 0
M  V30 33 Pb 5.4667 -3.1409 5.1788 0
M  V30 34 Pb 5.4521 -1.1399 5.2875 0
M  V30 35 Pb 6.2553 -2.0398 4.6348 0
M  V30 36 Pd -6.1600 -0.6998 -2.2141 0
M  V30 37 Pb -5.3953 -0.8389 -2.8398 0
M  V30 38 Pb -6.8868 -0.5073 -1.5482 0
M  V30 39 Pb -6.4685 -0.0220 -2.8873 0
M  V30 40 Pb -5.8081 -1.4017 -1.5916 0
M  V30 41 Pd -6.3249 2.8649 1.4777 0
M  V30 42 Pb -6.8948 3.3722 0.8438 0
M  V30 43 Pb -5.7481 2.3790 2.1334 0
M  V30 44 Pb -6.9657 2.0990 1.4111 0
M  V30 45 Pb -5.6472 3.6024 1.3784 0
M  V30 46 Ag -0.6393 -2.7711 5.1151 0
M  V30 47 Fe 1.6376 -2.4832 5.7146 0
M  V30 48 Ag 3.9605 -2.2157 6.1125 0
M  V30 49 Ag -0.7691 1.4309 -4.2555 0
M  V30 50 Fe -2.7766 0.2255 -3.8728 0
M  V30 51 Ag -4.8180 -0.8475 -3.3149 0
M  V30 52 Ag 4.3609 -3.4121 -2.9670 0
M  V30 53 Fe 4.8570 -4.8483 -1.1674 0
M  V30 54 Ag 4.4889 -5.8214 0.9469 0
M  V30 55 Ag 6.2046 3.0755 2.1128 0
M  V30 56 Fe 5.8125 1.4613 3.8090 0
M  V30 57 Ag 5.4684 -0.3903 5.2549 0
M  V30 58 Ag -3.6162 6.1527 -2.8395 0
M  V30 59 Fe -4.2697 5.2701 -0.7248 0
M  V30 60 Ag -5.1601 4.1469 1.1791 0
M  V30 61 Ag -5.7180 5.7781 -3.6363 0
M  V30 62 Fe -6.7177 4.8864 -1.6913 0
M  V30 63 Ag -7.2357 3.7872 0.3336 0
M  V30 64 Ag 7.4826 1.5899 0.9555 0
M  V30 65 Fe 7.2861 -0.1982 2.5088 0
M  V30 66 Ag 6.7897 -1.8514 4.1423 0
M  V30 67 Ag 6.5462 2.4477 -1.2501 0
M  V30 68 Fe 5.3859 0.7803 -2.4722 0
M  V30 69 Ag 4.0788 -0.9936 -3.3473 0
M  V30 70 Ag -5.0902 4.5420 -5.3421 0
M  V30 71 Fe -5.9313 2.4631 -4.5515 0
M  V30 72 Ag -6.5795 0.4474 -3.4681 0
M  V30 73 Ag -2.8586 -3.4278 2.4910 0
M  V30 74 Fe -4.1956 -2.6690 0.6780 0
M  V30 75 Ag -5.5429 -1.9417 -1.1402 0
M  V30 76 Ag -2.5345 -1.5433 4.0559 0
M  V30 77 Fe -3.9275 0.2341 3.3230 0
M  V30 78 Ag -5.3129 2.0366 2.6384 0
M  V30 79 Ag 5.3121 4.0686 -0.1478 0
M  V30 80 Fe 3.3194 4.0126 -1.4406 0
M  V30 81 Ag 1.3528 3.7620 -2.7504 0
M  V30 82 Ba -2.6094 5.4721 -5.1793 0
M  V30 83 Ga -1.3930 4.6622 -4.9657 0
M  V30 84 Ba -0.1728 3.8562 -4.7592 0
M  V30 85 Ba 1.9436 -1.1737 -2.0458 0
M  V30 86 Ga 1.2792 0.1270 -2.2526 0
M  V30 87 Ba 0.5772 1.4192 -2.3711 0
M  V30 88 Ba 2.2119 -3.6281 -1.9664 0
M  V30 89 Ga 2.2701 -4.4702 -0.7344 0
M  V30 90 Ba 2.2256 -5.3717 0.4554 0
M  V30 91 Ba -0.9610 -4.6442 3.6783 0
M  V30 92 Ga 0.3238 -5.2142 3.2202 0
M  V30 93 Ba 1.5692 -5.8930 2.8044 0
M  V30 94 Ba -7.3859 -0.3841 -0.9956 0
M  V30 95 Ga -7.4424 0.5619 0.1413 0
M  V30 96 Ba -7.4400 1.5374 1.2544 0
M  V30 97 Ba 4.0584 -5.8698 3.4279 0
M  V30 98 Ga 4.7443 -4.8835 4.2908 0
M  V30 99 Ba 5.4285 -3.8929 5.1501 0
M  V30 END ATOM
M  V30 BEGIN BOND
M  V30 1 1 1 2
M  V30 2 1 1 3
M  V30 3 1 1 4
M  V30 4 1 1 5
M  V30 5 1 6 7
M  V30 6 1 6 8
M  V30 7 1 6 9
M  V30 8 1 6 10
M  V30 9 1 11 12
M  V30 10 1 11 13
M  V30 11 1 11 14
M  V30 12 1 11 15
M  V30 13 1 16 17
M  V30 14 1 16 18
M  V30 15 1 16 19
M  V30 16 1 16 20
M  V30 17 1 21 22
M  V30 18 1 21 23
M  V30 19 1 21 24
M  V30 20 1 21 25
M  V30 21 1 26 27
M  V30 22 1 26 28
M  V30 23 1 26 29
M  V30 24 1 26 30
M  V30 25 1 31 32
M  V30 26 1 31 33
M  V30 27 1 31 34
M  V30 28 1 31 35
M  V30 29 1 36 37
M  V30 30 1 36 38
M  V30 31 1 36 39
M  V30 32 1 36 40
M  V30 33 1 41 42
M  V30 34 1 41 43
M  V30 35 1 41 44
M  V30 36 1 41 45
M  V30 37 1 46 47
M  V30 38 1 47 48
M  V30 39 1 49 50
M  V30 40 1 50 51
M  V30 41 1 52 53
M  V30 42 1 53 54
M  V30 43 1 55 56
M  V30 44 1 56 57
M  V30 45 1 58 59
M  V30 46 1 59 60
M  V30 47 1 61 62
M  V30 48 1 62 63
M  V30 49 1 64 65
M  V30 50 1 65 66
M  V30 51 1 67 68
M  V30 52 1 68 69
M  V30 53 1 70 71
M  V30 54 1 71 72
M  V30 55 1 73 74
M  V30 56 1 74 75
M  V30 57 1 76 77
M  V30 58 1 77 78
M  V30 59 1 79 80
M  V30 60 1 80 81
M  V30 61 1 82 83
M  V30 62 1 83 84
M  V30 63 1 85 86
M  V30 64 1 86 87
M  V30 65 1 88 89
M  V30 66 1 89 90
M  V30 67 1 91 92
M  V30 68 1 92 93
M  V30 69 1 94 95
M  V30 70 1 95 96
M  V30 71 1 97 98
M  V30 72 1 98 99
M  V30 73 1 2 46
M  V30 74 1 3 76
M  V30 75 1 4 91
M  V30 76 1 5 73
M  V30 77 1 7 82
M  V30 78 1 8 61
M  V30 79 1 9 70
M  V30 80 1 10 58
M  V30 81 1 12 64
M  V30 82 1 13 79
M  V30 83 1 14 67
M  V30 84 1 15 55
M  V30 85 1 17 69
M  V30 86 1 18 52
M  V30 87 1 19 85
M  V30 88 1 20 88
M  V30 89 1 22 84
M  V30 90 1 23 81
M  V30 91 1 24 87
M  V30 92 1 25 49
M  V30 93 1 27 54
M  V30 94 1 28 97
M  V30 95 1 29 93
M  V30 96 1 30 90
M  V30 97 1 32 48
M  V30 98 1 33 99
M  V30 99 1 34 57
M  V30 100 1 35 66
M  V30 101 1 37 51
M  V30 102 1 38 94
M  V30 103 1 39 72
M  V30 104 1 40 75
M  V30 105 1 42 63
M  V30 106 1 43 78
M  V30 107 1 44 96
M  V30 108 1 45 60
M  V30 END BOND
M  V30 END CTAB
M  END

$$$$
