
     RDKit          3D

  0  0  0  0  0  0  0  0  0  0999 V3000
M  V30 BEGIN CTAB
M  V30 COUNTS 99 108 0 0 0
M  V30 BEGIN ATOM
M  V30 1 Pd 3.1381 -2.2774 3.2961 0
M  V30 2 Pb 3.7203 -1.8206 3.9682 0
M  V30 3 Pb 2.4438 -2.6703 2.6918 0
M  V30 4 Pb 2.6284 -2.6849 4.0495 0
M  V30 5 Pb 3.6208 -1.8217 2.5428 0
M  V30 6 Pd -0.9528 -3.4689 -7.0215 0
M  V30 7 Pb -1.3843 -2.5906 -7.2396 0
M  V30 8 Pb -1.6394 -3.6884 -6.3257 0
M  V30 9 Pb -0.1348 -3.2586 -7.5533 0
M  V30 10 Pb -0.5312 -4.3439 -6.8012 0
M  V30 11 Pd -0.8800 6.2389 1.0327 0
M  V30 12 Pb 0.0656 5.9570 1.2070 0
M  V30 13 Pb -0.7247 6.2237 0.0481 0
M  V30 14 Pb -1.8524 6.4207 0.9066 0
M  V30 15 Pb -1.0309 6.2104 2.0140 0
M  V30 16 Pd -4.9623 2.7645 1.1187 0
M  V30 17 Pb -4.8229 3.7574 1.1076 0
M  V30 18 Pb -4.7961 2.7042 2.1322 0
M  V30 19 Pb -5.0825 2.7851 0.1230 0
M  V30 20 Pb -5.1719 1.7972 1.0935 0
M  V30 21 Pd -1.3819 2.1601 -5.5453 0
M  V30 22 Pb -1.6694 1.4070 -6.1442 0
M  V30 23 Pb -1.1164 2.9606 -5.0114 0
M  V30 24 Pb -2.3074 2.2442 -5.1712 0
M  V30 25 Pb -0.4270 2.0884 -5.8344 0
M  V30 26 Pd -2.8952 -0.1965 6.0425 0
M  V30 27 Pb -3.3449 0.6368 5.6460 0
M  V30 28 Pb -2.3130 0.3025 6.6908 0
M  V30 29 Pb -2.3925 -1.0072 6.3286 0
M  V30 30 Pb -3.4361 -0.7686 5.4425 0
M  V30 31 Pd 2.0050 2.0649 6.1244 0
M  V30 32 Pb 2.7288 1.3691 6.1498 0
M  V30 33 Pb 1.4671 1.6700 6.8681 0
M  V30 34 Pb 1.3148 2.7798 6.0978 0
M  V30 35 Pb 2.4374 2.5107 5.3389 0
M  V30 36 Pd 5.0977 -1.4097 -4.1419 0
M  V30 37 Pb 4.7741 -0.5630 -4.5620 0
M  V30 38 Pb 5.3267 -2.2775 -3.7017 0
M  V30 39 Pb 4.9048 -1.8231 -5.0324 0
M  V30 40 Pb 5.2023 -0.9948 -3.2368 0
M  V30 41 Pd 0.9369 -5.9291 -0.9019 0
M  V30 42 Pb -0.0181 -5.7926 -1.1772 0
M  V30 43 Pb 0.8101 -5.2967 -0.1393 0
M  V30 44 Pb 1.9277 -5.9421 -0.7883 0
M  V30 45 Pb 1.0479 -6.4715 -1.7278 0
M  V30 46 Ag 0.3123 2.0768 -5.9639 0
M  V30 47 Fe 2.4198 1.0892 -5.4897 0
M  V30 48 Ag 4.4598 0.0067 -4.9343 0
M  V30 49 Ag -5.1513 2.7699 -0.6269 0
M  V30 50 Fe -4.1101 2.5559 -2.7543 0
M  V30 51 Ag -2.9721 2.3329 -4.8306 0
M  V30 52 Ag -1.0941 6.1182 2.7481 0
M  V30 53 Fe -0.2381 4.7996 4.5159 0
M  V30 54 Ag 0.8133 3.3257 6.0389 0
M  V30 55 Ag -0.2232 -4.9814 -6.5688 0
M  V30 56 Fe 0.5039 -6.0799 -4.6026 0
M  V30 57 Ag 1.0810 -6.7614 -2.4113 0
M  V30 58 Ag -2.0171 -3.9070 -5.7122 0
M  V30 59 Fe -1.5481 -4.7833 -3.5501 0
M  V30 60 Ag -0.6783 -5.6340 -1.5048 0
M  V30 61 Ag 0.7377 5.6840 1.4064 0
M  V30 62 Fe 1.8327 4.3086 3.0070 0
M  V30 63 Ag 2.6582 2.8971 4.7331 0
M  V30 64 Ag -5.3014 1.0767 1.1767 0
M  V30 65 Fe -4.7693 -0.4478 2.8837 0
M  V30 66 Ag -3.8275 -1.1224 4.9280 0
M  V30 67 Ag 0.5643 -3.1574 -7.8013 0
M  V30 68 Fe 2.7036 -2.6176 -6.9228 0
M  V30 69 Ag 4.6621 -2.0426 -5.7083 0
M  V30 70 Ag 2.1820 -2.9320 4.5939 0
M  V30 71 Fe 0.1331 -2.4263 5.6700 0
M  V30 72 Ag -1.9300 -1.5755 6.4642 0
M  V30 73 Ag 3.9833 -1.4433 2.0005 0
M  V30 74 Fe 4.6226 -1.0852 -0.2621 0
M  V30 75 Ag 5.2523 -0.7443 -2.5301 0
M  V30 76 Ag 5.4193 -2.8950 -3.2870 0
M  V30 77 Fe 4.2148 -4.4889 -2.0059 0
M  V30 78 Ag 2.6691 -5.8757 -0.8575 0
M  V30 79 Ag -0.6036 6.1790 -0.6875 0
M  V30 80 Fe -0.7605 4.8860 -2.6701 0
M  V30 81 Ag -0.9213 3.5841 -4.6467 0
M  V30 82 Ba -1.7297 -1.9483 -7.4250 0
M  V30 83 Ga -1.7838 -0.5383 -6.9810 0
M  V30 84 Ba -1.9243 0.8924 -6.6330 0
M  V30 85 Ba 4.0825 -1.4619 4.5187 0
M  V30 86 Ga 3.7078 -0.2886 5.3368 0
M  V30 87 Ba 3.3081 0.8857 6.1418 0
M  V30 88 Ba -4.6893 2.6972 2.9028 0
M  V30 89 Ga -4.1583 1.9073 4.0710 0
M  V30 90 Ba -3.6846 1.2701 5.3519 0
M  V30 91 Ba -2.5949 6.4992 0.8667 0
M  V30 92 Ga -3.6845 5.5079 0.9545 0
M  V30 93 Ba -4.7637 4.5055 1.0465 0
M  V30 94 Ba 1.8287 -2.9334 2.3498 0
M  V30 95 Ga 1.3308 -3.8902 1.3435 0
M  V30 96 Ba 0.6546 -4.7825 0.3825 0
M  V30 97 Ba -1.8382 0.5442 7.2263 0
M  V30 98 Ga -0.4356 1.0093 7.3109 0
M  V30 99 Ba 0.9652 1.4801 7.3932 0
M  V30 END ATOM
M  V30 BEGIN BOND
M  V30 1 1 1 2
M  V30 2 1 1 3
M  V30 3 1 1 4
M  V30 4 1 1 5
M  V30 5 1 6 7
M  V30 6 1 6 8
M  V30 7 1 6 9
M  V30 8 1 6 10
M  V30 9 1 11 12
M  V30 10 1 11 13
M  V30 11 1 11 14
M  V30 12 1 11 15
M  V30 13 1 16 17
M  V30 14 1 16 18
M  V30 15 1 16 19
M  V30 16 1 16 20
M  V30 17 1 21 22
M  V30 18 1 21 23
M  V30 19 1 21 24
M  V30 20 1 21 25
M  V30 21 1 26 27
M  V30 22 1 26 28
M  V30 23 1 26 29
M  V30 24 1 26 30
M  V30 25 1 31 32
M  V30 26 1 31 33
M  V30 27 1 31 34
M  V30 28 1 31 35
M  V30 29 1 36 37
M  V30 30 1 36 38
M  V30 31 1 36 39
M  V30 32 1 36 40
M  V30 33 1 41 42
M  V30 34 1 41 43
M  V30 35 1 41 44
M  V30 36 1 41 45
M  V30 37 1 46 47
M  V30 38 1 47 48
M  V30 39 1 49 50
M  V30 40 1 50 51
M  V30 41 1 52 53
M  V30 42 1 53 54
M  V30 43 1 55 56
M  V30 44 1 56 57
M  V30 45 1 58 59
M  V30 46 1 59 60
M  V30 47 1 61 62
M  V30 48 1 62 63
M  V30 49 1 64 65
M  V30 50 1 65 66
M  V30 51 1 67 68
M  V30 52 1 68 69
M  V30 53 1 70 71
M  V30 54 1 71 72
M  V30 55 1 73 74
M  V30 56 1 74 75
M  V30 57 1 76 77
M  V30 58 1 77 78
M  V30 59 1 79 80
M  V30 60 1 80 81
M  V30 61 1 82 83
M  V30 62 1 83 84
M  V30 63 1 85 86
M  V30 64 1 86 87
M  V30 65 1 88 89
M  V30 66 1 89 90
M  V30 67 1 91 92
M  V30 68 1 92 93
M  V30 69 1 94 95
M  V30 70 1 95 96
M  V30 71 1 97 98
M  V30 72 1 98 99
M  V30 73 1 2 85
M  V30 74 1 3 94
M  V30 75 1 4 70
M  V30 76 1 5 73
M  V30 77 1 7 82
M  V30 78 1 8 58
M  V30 79 1 9 67
M  V30 80 1 10 55
M  V30 81 1 12 61
M  V30 82 1 13 79
M  V30 83 1 14 91
M  V30 84 1 15 52
M  V30 85 1 17 93
M  V30 86 1 18 88
M  V30 87 1 19 49
M  V30 88 1 20 64
M  V30 89 1 22 84
M  V30 90 1 23 81
M  V30 91 1 24 51
M  V30 92 1 25 46
M  V30 93 1 27 90
M  V30 94 1 28 97
M  V30 95 1 29 72
M  V30 96 1 30 66
M  V30 97 1 32 87
M  V30 98 1 33 99
M  V30 99 1 34 54
M  V30 100 1 35 63
M  V30 101 1 37 48
M  V30 102 1 38 76
M  V30 103 1 39 69
M  V30 104 1 40 75
M  V30 105 1 42 60
M  V30 106 1 43 96
M  V30 107 1 44 78
M  V30 108 1 45 57
M  V30 END BOND
M  V30 END CTAB
M  END

$$$$
