
     RDKit          3D

  0  0  0  0  0  0  0  0  0  0999 V3000
M  V30 BEGIN CTAB
M  V30 COUNTS 99 108 0 0 0
M  V30 BEGIN ATOM
M  V30 1 Pd 0.1353 6.6615 4.7967 0
M  V30 2 Pb 0.9203 6.1786 4.4254 0
M  V30 3 Pb 0.5450 7.5238 4.4966 0
M  V30 4 Pb -0.2948 5.7852 5.0714 0
M  V30 5 Pb -0.6795 7.1964 5.0139 0
M  V30 6 Pd -1.7492 1.2895 -3.3570 0
M  V30 7 Pb -2.0882 1.4441 -4.2794 0
M  V30 8 Pb -2.5227 1.9387 -3.1954 0
M  V30 9 Pb -1.2196 1.6683 -4.0714 0
M  V30 10 Pb -1.6742 0.8964 -2.5078 0
M  V30 11 Pd -2.7371 10.0166 -0.1597 0
M  V30 12 Pb -3.5467 9.5489 -0.5058 0
M  V30 13 Pb -2.2844 9.9332 -1.0380 0
M  V30 14 Pb -1.9046 10.3674 0.2616 0
M  V30 15 Pb -3.1342 10.0429 0.7485 0
M  V30 16 Pd 3.3082 -8.2667 2.8627 0
M  V30 17 Pb 2.4292 -8.0302 3.3044 0
M  V30 18 Pb 2.9242 -8.5463 1.9826 0
M  V30 19 Pb 4.2263 -8.1670 2.4714 0
M  V30 20 Pb 3.7294 -8.1283 3.7543 0
M  V30 21 Pd 1.0962 1.4257 3.7943 0
M  V30 22 Pb 1.4117 1.0153 4.6805 0
M  V30 23 Pb 0.5930 1.9224 4.5034 0
M  V30 24 Pb 1.6940 2.2626 3.7695 0
M  V30 25 Pb 1.0616 1.2237 2.8196 0
M  V30 26 Pd 1.3001 -9.2709 -2.9767 0
M  V30 27 Pb 0.3412 -9.3257 -2.6530 0
M  V30 28 Pb 1.5843 -9.1634 -2.0502 0
M  V30 29 Pb 2.1212 -8.8505 -3.3651 0
M  V30 30 Pb 1.0111 -9.5520 -3.8838 0
M  V30 31 Pd -3.4527 6.6334 -4.0837 0
M  V30 32 Pb -3.8863 5.7328 -4.0551 0
M  V30 33 Pb -4.0892 6.9337 -3.3725 0
M  V30 34 Pb -2.8073 6.3714 -4.7853 0
M  V30 35 Pb -2.9203 7.4633 -4.0023 0
M  V30 36 Pd -1.1424 -4.8590 -6.0536 0
M  V30 37 Pb -1.9399 -5.2227 -5.5382 0
M  V30 38 Pb -1.1249 -5.7115 -6.5483 0
M  V30 39 Pb -1.2102 -3.9170 -5.7758 0
M  V30 40 Pb -0.1682 -4.7529 -6.2529 0
M  V30 41 Pd 3.1078 -3.9584 5.2071 0
M  V30 42 Pb 3.5448 -4.8069 5.4815 0
M  V30 43 Pb 4.0240 -3.6542 4.9379 0
M  V30 44 Pb 2.2381 -4.4927 5.1719 0
M  V30 45 Pb 2.7073 -3.0379 5.2426 0
M  V30 46 Ag -0.3818 -9.1440 -2.5622 0
M  V30 47 Fe -1.6222 -7.3705 -3.5517 0
M  V30 48 Ag -2.3363 -5.6591 -5.0528 0
M  V30 49 Ag -1.3669 0.5882 -1.9477 0
M  V30 50 Fe -0.2614 0.8338 0.1065 0
M  V30 51 Ag 0.8159 0.9028 2.1963 0
M  V30 52 Ag -1.2771 7.6416 5.0156 0
M  V30 53 Fe -2.5172 8.8136 3.3750 0
M  V30 54 Ag -3.3009 9.9854 1.4708 0
M  V30 55 Ag -2.2012 1.2602 -4.9712 0
M  V30 56 Fe -2.0659 -0.9941 -5.6095 0
M  V30 57 Ag -1.3449 -3.2135 -5.6665 0
M  V30 58 Ag 0.7766 -9.7045 -4.5639 0
M  V30 59 Fe -0.2571 -8.4232 -6.2182 0
M  V30 60 Ag -1.0912 -6.3576 -6.9026 0
M  V30 61 Ag 4.8707 -7.8096 2.3719 0
M  V30 62 Fe 5.2418 -5.6598 3.3102 0
M  V30 63 Ag 4.6956 -3.7464 4.6105 0
M  V30 64 Ag 0.7524 8.1702 4.1910 0
M  V30 65 Fe -0.0111 9.4888 2.3836 0
M  V30 66 Ag -1.2950 10.5101 0.6728 0
M  V30 67 Ag -0.8485 1.9633 -4.6066 0
M  V30 68 Fe -1.0739 4.1389 -5.3926 0
M  V30 69 Ag -2.2887 6.1277 -5.2448 0
M  V30 70 Ag 2.5478 -8.3534 -3.7448 0
M  V30 71 Fe 1.8823 -6.4272 -4.9776 0
M  V30 72 Ag 0.5770 -4.8674 -6.2237 0
M  V30 73 Ba -3.1741 2.3395 -3.1915 0
M  V30 74 Ga -3.6483 3.7044 -3.5658 0
M  V30 75 Ba -4.1884 5.0599 -3.8858 0
M  V30 76 Ba 1.6116 0.5136 5.2398 0
M  V30 77 Ga 2.0639 -0.9239 5.2612 0
M  V30 78 Ba 2.5006 -2.3374 5.4722 0
M  V30 79 Ba 4.0152 -8.0045 4.4295 0
M  V30 80 Ga 3.9964 -6.7559 5.1884 0
M  V30 81 Ba 3.8702 -5.4178 5.7576 0
M  V30 82 Ba 2.6435 -8.9150 1.3857 0
M  V30 83 Ga 2.2522 -8.9426 -0.0349 0
M  V30 84 Ba 1.7570 -9.3082 -1.3586 0
M  V30 85 Ba 1.5171 5.8134 4.1522 0
M  V30 86 Ga 1.8160 4.3680 3.9498 0
M  V30 87 Ba 2.0974 2.9164 3.7169 0
M  V30 88 Ba -0.5988 5.1304 5.3009 0
M  V30 89 Ga -0.2683 3.7103 5.1063 0
M  V30 90 Ba 0.1019 2.2983 4.9258 0
M  V30 91 Ba 1.8434 -7.7129 3.7007 0
M  V30 92 Ga 1.7411 -6.3838 4.4016 0
M  V30 93 Ba 1.6974 -5.0438 5.0923 0
M  V30 94 Ba -4.1524 9.1679 -0.7198 0
M  V30 95 Ga -4.3933 8.1613 -1.7581 0
M  V30 96 Ba -4.5624 7.1940 -2.8509 0
M  V30 97 Ba -1.9651 9.8834 -1.7057 0
M  V30 98 Ga -2.1983 8.9788 -2.8324 0
M  V30 99 Ba -2.4721 8.0505 -3.9319 0
M  V30 END ATOM
M  V30 BEGIN BOND
M  V30 1 1 1 2
M  V30 2 1 1 3
M  V30 3 1 1 4
M  V30 4 1 1 5
M  V30 5 1 6 7
M  V30 6 1 6 8
M  V30 7 1 6 9
M  V30 8 1 6 10
M  V30 9 1 11 12
M  V30 10 1 11 13
M  V30 11 1 11 14
M  V30 12 1 11 15
M  V30 13 1 16 17
M  V30 14 1 16 18
M  V30 15 1 16 19
M  V30 16 1 16 20
M  V30 17 1 21 22
M  V30 18 1 21 23
M  V30 19 1 21 24
M  V30 20 1 21 25
M  V30 21 1 26 27
M  V30 22 1 26 28
M  V30 23 1 26 29
M  V30 24 1 26 30
M  V30 25 1 31 32
M  V30 26 1 31 33
M  V30 27 1 31 34
M  V30 28 1 31 35
M  V30 29 1 36 37
M  V30 30 1 36 38
M  V30 31 1 36 39
M  V30 32 1 36 40
M  V30 33 1 41 42
M  V30 34 1 41 43
M  V30 35 1 41 44
M  V30 36 1 41 45
M  V30 37 1 46 47
M  V30 38 1 47 48
M  V30 39 1 49 50
M  V30 40 1 50 51
M  V30 41 1 52 53
M  V30 42 1 53 54
M  V30 43 1 55 56
M  V30 44 1 56 57
M  V30 45 1 58 59
M  V30 46 1 59 60
M  V30 47 1 61 62
M  V30 48 1 62 63
M  V30 49 1 64 65
M  V30 50 1 65 66
M  V30 51 1 67 68
M  V30 52 1 68 69
M  V30 53 1 70 71
M  V30 54 1 71 72
M  V30 55 1 73 74
M  V30 56 1 74 75
M  V30 57 1 76 77
M  V30 58 1 77 78
M  V30 59 1 79 80
M  V30 60 1 80 81
M  V30 61 1 82 83
M  V30 62 1 83 84
M  V30 63 1 85 86
M  V30 64 1 86 87
M  V30 65 1 88 89
M  V30 66 1 89 90
M  V30 67 1 91 92
M  V30 68 1 92 93
M  V30 69 1 94 95
M  V30 70 1 95 96
M  V30 71 1 97 98
M  V30 72 1 98 99
M  V30 73 1 2 85
M  V30 74 1 3 64
M  V30 75 1 4 88
M  V30 76 1 5 52
M  V30 77 1 7 55
M  V30 78 1 8 73
M  V30 79 1 9 67
M  V30 80 1 10 49
M  V30 81 1 12 94
M  V30 82 1 13 97
M  V30 83 1 14 66
M  V30 84 1 15 54
M  V30 85 1 17 91
M  V30 86 1 18 82
M  V30 87 1 19 61
M  V30 88 1 20 79
M  V30 89 1 22 76
M  V30 90 1 23 90
M  V30 91 1 24 87
M  V30 92 1 25 51
M  V30 93 1 27 46
M  V30 94 1 28 84
M  V30 95 1 29 70
M  V30 96 1 30 58
M  V30 97 1 32 75
M  V30 98 1 33 96
M  V30 99 1 34 69
M  V30 100 1 35 99
M  V30 101 1 37 48
M  V30 102 1 38 60
M  V30 103 1 39 57
M  V30 104 1 40 72
M  V30 105 1 42 81
M  V30 106 1 43 63
M  V30 107 1 44 93
M  V30 108 1 45 78
M  V30 END BOND
M  V30 END CTAB
M  END

$$$$
