
     RDKit          3D

  0  0  0  0  0  0  0  0  0  0999 V3000
M  V30 BEGIN CTAB
M  V30 COUNTS 99 108 0 0 0
M  V30 BEGIN ATOM
M  V30 1 Pd 1.6939 -5.4325 1.4987 0
M  V30 2 Pb 1.3846 -6.2234 0.9795 0
M  V30 3 Pb 2.2734 -5.2635 0.7183 0
M  V30 4 Pb 1.9957 -4.5589 1.9439 0
M  V30 5 Pb 1.0550 -5.6497 2.2378 0
M  V30 6 Pd 2.2637 4.5698 4.0861 0
M  V30 7 Pb 1.6292 5.3054 3.8523 0
M  V30 8 Pb 2.9085 4.9463 3.4278 0
M  V30 9 Pb 2.8880 3.8042 4.2607 0
M  V30 10 Pb 1.5738 4.1996 4.7062 0
M  V30 11 Pd -0.0853 -0.0223 -5.4092 0
M  V30 12 Pb 0.3311 -0.9083 -5.6290 0
M  V30 13 Pb 0.8298 0.4016 -5.3970 0
M  V30 14 Pb -0.9848 -0.4542 -5.4629 0
M  V30 15 Pb -0.5791 0.8264 -5.2122 0
M  V30 16 Pd -1.7970 -4.9092 -4.4642 0
M  V30 17 Pb -1.0046 -4.6069 -4.9993 0
M  V30 18 Pb -1.3027 -5.6882 -4.0866 0
M  V30 19 Pb -2.3036 -4.1163 -4.7946 0
M  V30 20 Pb -2.5356 -5.1613 -3.8400 0
M  V30 21 Pd -4.3043 0.7000 4.2796 0
M  V30 22 Pb -4.9105 0.1004 3.7573 0
M  V30 23 Pb -4.5972 1.4777 3.7208 0
M  V30 24 Pb -4.0109 -0.0856 4.8220 0
M  V30 25 Pb -3.6593 1.2667 4.7912 0
M  V30 26 Pd -2.6858 5.9047 -1.1676 0
M  V30 27 Pb -3.4069 5.5248 -0.5878 0
M  V30 28 Pb -1.9388 6.2247 -1.7440 0
M  V30 29 Pb -2.3430 6.4116 -0.3785 0
M  V30 30 Pb -2.9345 5.3401 -1.9517 0
M  V30 31 Pd 4.4456 0.0749 1.3258 0
M  V30 32 Pb 5.0330 0.7208 0.8362 0
M  V30 33 Pb 4.5123 -0.4450 0.4895 0
M  V30 34 Pb 3.8935 -0.6639 1.7780 0
M  V30 35 Pb 4.4464 0.6002 2.1846 0
M  V30 36 Pd -3.6150 -4.3053 2.9062 0
M  V30 37 Pb -3.7806 -4.7401 2.0189 0
M  V30 38 Pb -2.8549 -4.9176 3.1348 0
M  V30 39 Pb -3.4766 -3.8525 3.7855 0
M  V30 40 Pb -4.3667 -3.6740 2.7118 0
M  V30 41 Pd 4.0267 3.4906 -2.9893 0
M  V30 42 Pb 3.8166 2.8232 -3.7118 0
M  V30 43 Pb 4.2282 4.1444 -2.2660 0
M  V30 44 Pb 4.7312 2.9278 -2.5545 0
M  V30 45 Pb 3.3436 4.1239 -3.3441 0
M  V30 46 Ag 1.1422 5.8271 3.6250 0
M  V30 47 Fe -0.4747 6.3853 1.9796 0
M  V30 48 Ag -2.0442 6.7252 0.2319 0
M  V30 49 Ag 2.6771 -5.0622 0.1387 0
M  V30 50 Fe 3.8078 -3.0932 -0.4475 0
M  V30 51 Ag 4.5645 -0.9042 -0.0810 0
M  V30 52 Ag -4.8289 2.0422 3.2823 0
M  V30 53 Fe -4.3935 3.6446 1.5828 0
M  V30 54 Ag -3.9146 5.2325 -0.1187 0
M  V30 55 Ag -1.3778 6.3625 -2.2168 0
M  V30 56 Fe 0.7391 5.5892 -2.9530 0
M  V30 57 Ag 2.8385 4.6451 -3.5208 0
M  V30 58 Ag -1.0668 1.3850 -5.0847 0
M  V30 59 Fe -2.0378 3.1511 -3.8265 0
M  V30 60 Ag -2.9991 4.9241 -2.5705 0
M  V30 61 Ag 3.3423 5.2193 2.8869 0
M  V30 62 Fe 3.9402 4.9961 0.6055 0
M  V30 63 Ag 4.3828 4.5854 -1.6853 0
M  V30 64 Ag 1.1697 -6.7178 0.4655 0
M  V30 65 Fe 0.1082 -6.7037 -1.6523 0
M  V30 66 Ag -0.9858 -6.2450 -3.7032 0
M  V30 67 Ag -3.0194 -5.3620 -3.3034 0
M  V30 68 Fe -3.5253 -5.2168 -0.9862 0
M  V30 69 Ag -3.9540 -5.0207 1.3429 0
M  V30 70 Ag 1.0089 3.9513 5.1307 0
M  V30 71 Fe -1.0691 2.8050 5.2004 0
M  V30 72 Ag -3.1410 1.6458 5.1783 0
M  V30 73 Ba 2.1872 -3.8980 2.3009 0
M  V30 74 Ga 2.8700 -2.5672 2.1347 0
M  V30 75 Ba 3.4974 -1.2001 2.1757 0
M  V30 76 Ba 0.5563 -5.8630 2.7571 0
M  V30 77 Ga -0.8661 -5.5864 3.0461 0
M  V30 78 Ba -2.2859 -5.3466 3.3774 0
M  V30 79 Ba -5.3373 -0.3737 3.3631 0
M  V30 80 Ga -5.1538 -1.7811 2.9605 0
M  V30 81 Ba -4.9246 -3.1886 2.5821 0
M  V30 82 Ba 1.5446 0.6492 -5.4521 0
M  V30 83 Ga 2.5581 1.5190 -4.8063 0
M  V30 84 Ba 3.6724 2.3435 -4.2773 0
M  V30 85 Ba -1.6605 -0.7734 -5.5172 0
M  V30 86 Ga -2.1807 -2.1303 -5.2800 0
M  V30 87 Ba -2.6562 -3.5010 -5.0296 0
M  V30 88 Ba -3.7868 -0.6840 5.2123 0
M  V30 89 Ga -3.5776 -2.0965 4.8510 0
M  V30 90 Ba -3.3842 -3.4970 4.4378 0
M  V30 91 Ba 0.5989 -1.5891 -5.8101 0
M  V30 92 Ga 0.1135 -2.9706 -5.5953 0
M  V30 93 Ba -0.4017 -4.3382 -5.3618 0
M  V30 94 Ba 3.3667 3.2337 4.3738 0
M  V30 95 Ga 3.8969 2.1004 3.5804 0
M  V30 96 Ba 4.4760 0.9439 2.8580 0
M  V30 97 Ba 5.5019 1.0863 0.3752 0
M  V30 98 Ga 5.3771 1.8570 -0.8810 0
M  V30 99 Ba 5.2830 2.6294 -2.1388 0
M  V30 END ATOM
M  V30 BEGIN BOND
M  V30 1 1 1 2
M  V30 2 1 1 3
M  V30 3 1 1 4
M  V30 4 1 1 5
M  V30 5 1 6 7
M  V30 6 1 6 8
M  V30 7 1 6 9
M  V30 8 1 6 10
M  V30 9 1 11 12
M  V30 10 1 11 13
M  V30 11 1 11 14
M  V30 12 1 11 15
M  V30 13 1 16 17
M  V30 14 1 16 18
M  V30 15 1 16 19
M  V30 16 1 16 20
M  V30 17 1 21 22
M  V30 18 1 21 23
M  V30 19 1 21 24
M  V30 20 1 21 25
M  V30 21 1 26 27
M  V30 22 1 26 28
M  V30 23 1 26 29
M  V30 24 1 26 30
M  V30 25 1 31 32
M  V30 26 1 31 33
M  V30 27 1 31 34
M  V30 28 1 31 35
M  V30 29 1 36 37
M  V30 30 1 36 38
M  V30 31 1 36 39
M  V30 32 1 36 40
M  V30 33 1 41 42
M  V30 34 1 41 43
M  V30 35 1 41 44
M  V30 36 1 41 45
M  V30 37 1 46 47
M  V30 38 1 47 48
M  V30 39 1 49 50
M  V30 40 1 50 51
M  V30 41 1 52 53
M  V30 42 1 53 54
M  V30 43 1 55 56
M  V30 44 1 56 57
M  V30 45 1 58 59
M  V30 46 1 59 60
M  V30 47 1 61 62
M  V30 48 1 62 63
M  V30 49 1 64 65
M  V30 50 1 65 66
M  V30 51 1 67 68
M  V30 52 1 68 69
M  V30 53 1 70 71
M  V30 54 1 71 72
M  V30 55 1 73 74
M  V30 56 1 74 75
M  V30 57 1 76 77
M  V30 58 1 77 78
M  V30 59 1 79 80
M  V30 60 1 80 81
M  V30 61 1 82 83
M  V30 62 1 83 84
M  V30 63 1 85 86
M  V30 64 1 86 87
M  V30 65 1 88 89
M  V30 66 1 89 90
M  V30 67 1 91 92
M  V30 68 1 92 93
M  V30 69 1 94 95
M  V30 70 1 95 96
M  V30 71 1 97 98
M  V30 72 1 98 99
M  V30 73 1 2 64
M  V30 74 1 3 49
M  V30 75 1 4 73
M  V30 76 1 5 76
M  V30 77 1 7 46
M  V30 78 1 8 61
M  V30 79 1 9 94
M  V30 80 1 10 70
M  V30 81 1 12 91
M  V30 82 1 13 82
M  V30 83 1 14 85
M  V30 84 1 15 58
M  V30 85 1 17 93
M  V30 86 1 18 66
M  V30 87 1 19 87
M  V30 88 1 20 67
M  V30 89 1 22 79
M  V30 90 1 23 52
M  V30 91 1 24 88
M  V30 92 1 25 72
M  V30 93 1 27 54
M  V30 94 1 28 55
M  V30 95 1 29 48
M  V30 96 1 30 60
M  V30 97 1 32 97
M  V30 98 1 33 51
M  V30 99 1 34 75
M  V30 100 1 35 96
M  V30 101 1 37 69
M  V30 102 1 38 78
M  V30 103 1 39 90
M  V30 104 1 40 81
M  V30 105 1 42 84
M  V30 106 1 43 63
M  V30 107 1 44 99
M  V30 108 1 45 57
M  V30 END BOND
M  V30 END CTAB
M  END

$$$$
