
     RDKit          3D

  0  0  0  0  0  0  0  0  0  0999 V3000
M  V30 BEGIN CTAB
M  V30 COUNTS 99 108 0 0 0
M  V30 BEGIN ATOM
M  V30 1 Pd 3.7208 -1.8216 0.4171 0
M  V30 2 Pb 3.8093 -1.4963 -0.5238 0
M  V30 3 Pb 4.6664 -1.5544 0.5865 0
M  V30 4 Pb 2.7649 -2.0462 0.2183 0
M  V30 5 Pb 3.5984 -1.9963 1.3935 0
M  V30 6 Pd -0.7223 -5.5049 1.0908 0
M  V30 7 Pb -1.0338 -4.9480 1.8704 0
M  V30 8 Pb -1.0837 -6.3187 1.5432 0
M  V30 9 Pb -0.4046 -4.6740 0.6327 0
M  V30 10 Pb -0.6707 -6.0178 0.2356 0
M  V30 11 Pd -5.4515 -3.5945 1.4242 0
M  V30 12 Pb -5.1574 -2.7454 0.9889 0
M  V30 13 Pb -5.7102 -4.4616 1.8470 0
M  V30 14 Pb -5.9985 -3.8096 0.6183 0
M  V30 15 Pb -4.7293 -3.4821 2.1203 0
M  V30 16 Pd -0.8094 0.3461 -4.7646 0
M  V30 17 Pb -1.7842 0.1082 -4.7841 0
M  V30 18 Pb -1.0208 1.3270 -4.7831 0
M  V30 19 Pb -0.5817 -0.6235 -4.7756 0
M  V30 20 Pb 0.1708 0.5065 -4.6733 0
M  V30 21 Pd -2.3463 3.4801 2.0161 0
M  V30 22 Pb -2.0424 4.2306 2.5893 0
M  V30 23 Pb -2.5896 4.1517 1.3228 0
M  V30 24 Pb -2.6869 2.7407 1.4382 0
M  V30 25 Pb -1.9698 2.8076 2.6804 0
M  V30 26 Pd -3.2750 -4.1436 -3.2331 0
M  V30 27 Pb -2.3830 -3.9599 -3.6343 0
M  V30 28 Pb -3.6080 -3.2660 -3.5941 0
M  V30 29 Pb -4.1897 -4.3248 -2.8558 0
M  V30 30 Pb -2.8786 -5.0053 -2.8995 0
M  V30 31 Pd 5.7061 4.4351 0.8910 0
M  V30 32 Pb 5.8916 4.5623 -0.0738 0
M  V30 33 Pb 5.5897 4.2370 1.8680 0
M  V30 34 Pb 4.8402 4.9738 0.7901 0
M  V30 35 Pb 6.4521 3.7781 0.9341 0
M  V30 36 Pd 2.6042 1.6416 4.5251 0
M  V30 37 Pb 3.5589 1.9320 4.5248 0
M  V30 38 Pb 1.6067 1.4523 4.4609 0
M  V30 39 Pb 2.8174 0.6762 4.3363 0
M  V30 40 Pb 2.4062 2.5756 4.7926 0
M  V30 41 Pd 0.5665 5.1585 -2.2266 0
M  V30 42 Pb -0.0261 4.8494 -2.9733 0
M  V30 43 Pb 1.1907 5.4342 -1.4575 0
M  V30 44 Pb 1.3524 5.0312 -2.8160 0
M  V30 45 Pb -0.2634 5.3677 -1.7049 0
M  V30 46 Ag 5.9152 4.6176 -0.8085 0
M  V30 47 Fe 4.2189 4.7985 -2.4250 0
M  V30 48 Ag 1.9970 4.9771 -3.1701 0
M  V30 49 Ag 5.3464 -1.2649 0.6889 0
M  V30 50 Fe 6.3958 0.8499 0.8623 0
M  V30 51 Ag 6.8723 3.1657 0.9673 0
M  V30 52 Ag -4.9152 -2.1188 0.6587 0
M  V30 53 Fe -3.9405 0.0387 0.8242 0
M  V30 54 Ag -2.9649 2.1941 1.0091 0
M  V30 55 Ag -1.5242 -6.8202 1.8691 0
M  V30 56 Fe -3.8225 -6.5477 2.2974 0
M  V30 57 Ag -5.7058 -5.1451 2.1378 0
M  V30 58 Ag 3.8205 -1.1693 -1.1982 0
M  V30 59 Fe 2.4821 -0.2874 -2.9488 0
M  V30 60 Ag 0.9068 0.4968 -4.5415 0
M  V30 61 Ag -1.7080 4.7108 3.0382 0
M  V30 62 Fe 0.2882 4.4791 4.2542 0
M  V30 63 Ag 2.1740 3.2597 4.9443 0
M  V30 64 Ba -2.5047 -0.1131 -4.7663 0
M  V30 65 Ga -3.1786 -1.3567 -4.3241 0
M  V30 66 Ba -3.8404 -2.6055 -3.8785 0
M  V30 67 Ba -1.1937 2.0590 -4.8279 0
M  V30 68 Ga -0.8174 3.3236 -4.1602 0
M  V30 69 Ba -0.4777 4.6163 -3.5276 0
M  V30 70 Ba 3.5135 -2.0535 2.1366 0
M  V30 71 Ga 3.2313 -1.0497 3.1869 0
M  V30 72 Ba 2.9513 -0.0640 4.2546 0
M  V30 73 Ba -0.3891 -1.3443 -4.7875 0
M  V30 74 Ga -1.0412 -2.5916 -4.3683 0
M  V30 75 Ba -1.7174 -3.8230 -3.9401 0
M  V30 76 Ba -0.7782 -6.3832 -0.4107 0
M  V30 77 Ga -1.6243 -6.0241 -1.5711 0
M  V30 78 Ba -2.4869 -5.6223 -2.7053 0
M  V30 79 Ba 5.6371 4.0051 2.5849 0
M  V30 80 Ga 4.9181 3.1362 3.5413 0
M  V30 81 Ba 4.2229 2.2792 4.5256 0
M  V30 82 Ba -2.6874 4.6748 0.8002 0
M  V30 83 Ga -1.8077 5.1111 -0.2998 0
M  V30 84 Ba -0.9262 5.5499 -1.3975 0
M  V30 85 Ba -1.3664 -4.5283 2.4085 0
M  V30 86 Ga -2.7433 -3.9713 2.5254 0
M  V30 87 Ba -4.1331 -3.4384 2.5904 0
M  V30 88 Ba 4.1793 5.3706 0.7081 0
M  V30 89 Ga 2.9337 5.4536 -0.1348 0
M  V30 90 Ba 1.6379 5.6764 -0.8696 0
M  V30 91 Ba -1.6844 2.2880 3.1679 0
M  V30 92 Ga -0.3838 1.8503 3.7652 0
M  V30 93 Ba 0.8513 1.3223 4.4254 0
M  V30 94 Ba 2.0525 -2.1642 0.0089 0
M  V30 95 Ga 0.9547 -3.1354 0.1861 0
M  V30 96 Ba -0.2114 -4.0353 0.2893 0
M  V30 97 Ba -6.2996 -4.0150 -0.0354 0
M  V30 98 Ga -5.6255 -4.2229 -1.3352 0
M  V30 99 Ba -4.8980 -4.4176 -2.6081 0
M  V30 END ATOM
M  V30 BEGIN BOND
M  V30 1 1 1 2
M  V30 2 1 1 3
M  V30 3 1 1 4
M  V30 4 1 1 5
M  V30 5 1 6 7
M  V30 6 1 6 8
M  V30 7 1 6 9
M  V30 8 1 6 10
M  V30 9 1 11 12
M  V30 10 1 11 13
M  V30 11 1 11 14
M  V30 12 1 11 15
M  V30 13 1 16 17
M  V30 14 1 16 18
M  V30 15 1 16 19
M  V30 16 1 16 20
M  V30 17 1 21 22
M  V30 18 1 21 23
M  V30 19 1 21 24
M  V30 20 1 21 25
M  V30 21 1 26 27
M  V30 22 1 26 28
M  V30 23 1 26 29
M  V30 24 1 26 30
M  V30 25 1 31 32
M  V30 26 1 31 33
M  V30 27 1 31 34
M  V30 28 1 31 35
M  V30 29 1 36 37
M  V30 30 1 36 38
M  V30 31 1 36 39
M  V30 32 1 36 40
M  V30 33 1 41 42
M  V30 34 1 41 43
M  V30 35 1 41 44
M  V30 36 1 41 45
M  V30 37 1 46 47
M  V30 38 1 47 48
M  V30 39 1 49 50
M  V30 40 1 50 51
M  V30 41 1 52 53
M  V30 42 1 53 54
M  V30 43 1 55 56
M  V30 44 1 56 57
M  V30 45 1 58 59
M  V30 46 1 59 60
M  V30 47 1 61 62
M  V30 48 1 62 63
M  V30 49 1 64 65
M  V30 50 1 65 66
M  V30 51 1 67 68
M  V30 52 1 68 69
M  V30 53 1 70 71
M  V30 54 1 71 72
M  V30 55 1 73 74
M  V30 56 1 74 75
M  V30 57 1 76 77
M  V30 58 1 77 78
M  V30 59 1 79 80
M  V30 60 1 80 81
M  V30 61 1 82 83
M  V30 62 1 83 84
M  V30 63 1 85 86
M  V30 64 1 86 87
M  V30 65 1 88 89
M  V30 66 1 89 90
M  V30 67 1 91 92
M  V30 68 1 92 93
M  V30 69 1 94 95
M  V30 70 1 95 96
M  V30 71 1 97 98
M  V30 72 1 98 99
M  V30 73 1 2 58
M  V30 74 1 3 49
M  V30 75 1 4 94
M  V30 76 1 5 70
M  V30 77 1 7 85
M  V30 78 1 8 55
M  V30 79 1 9 96
M  V30 80 1 10 76
M  V30 81 1 12 52
M  V30 82 1 13 57
M  V30 83 1 14 97
M  V30 84 1 15 87
M  V30 85 1 17 64
M  V30 86 1 18 67
M  V30 87 1 19 73
M  V30 88 1 20 60
M  V30 89 1 22 61
M  V30 90 1 23 82
M  V30 91 1 24 54
M  V30 92 1 25 91
M  V30 93 1 27 75
M  V30 94 1 28 66
M  V30 95 1 29 99
M  V30 96 1 30 78
M  V30 97 1 32 46
M  V30 98 1 33 79
M  V30 99 1 34 88
M  V30 100 1 35 51
M  V30 101 1 37 81
M  V30 102 1 38 93
M  V30 103 1 39 72
M  V30 104 1 40 63
M  V30 105 1 42 69
M  V30 106 1 43 90
M  V30 107 1 44 48
M  V30 108 1 45 84
M  V30 END BOND
M  V30 END CTAB
M  END

$$$$
