
     RDKit          3D

  0  0  0  0  0  0  0  0  0  0999 V3000
M  V30 BEGIN CTAB
M  V30 COUNTS 99 108 0 0 0
M  V30 BEGIN ATOM
M  V30 1 Pd 6.2116 -0.2749 2.5160 0
M  V30 2 Pb 5.7129 -1.1350 2.4059 0
M  V30 3 Pb 6.7088 0.5789 2.6411 0
M  V30 4 Pb 6.4712 -0.5472 3.4584 0
M  V30 5 Pb 5.8830 0.0729 1.6377 0
M  V30 6 Pd 4.6881 1.0435 7.6455 0
M  V30 7 Pb 3.9120 1.6617 7.7327 0
M  V30 8 Pb 5.4002 0.4119 7.3084 0
M  V30 9 Pb 5.2848 1.8115 7.4307 0
M  V30 10 Pb 4.0778 0.2812 7.8569 0
M  V30 11 Pd -0.6155 -1.4187 -5.5452 0
M  V30 12 Pb -1.5053 -1.7680 -5.8469 0
M  V30 13 Pb 0.2759 -1.1171 -5.2033 0
M  V30 14 Pb -0.7066 -0.5849 -6.0939 0
M  V30 15 Pb -0.4707 -2.2654 -5.0432 0
M  V30 16 Pd -2.5897 4.0722 -5.9114 0
M  V30 17 Pb -3.1148 4.8272 -5.5284 0
M  V30 18 Pb -3.3693 3.8149 -6.4733 0
M  V30 19 Pb -1.9607 4.1332 -5.1238 0
M  V30 20 Pb -2.0563 3.3359 -6.3328 0
M  V30 21 Pd -0.3251 -4.3702 1.2959 0
M  V30 22 Pb -1.2884 -4.3884 1.0244 0
M  V30 23 Pb -0.5655 -4.0706 2.2163 0
M  V30 24 Pb -0.1068 -4.6483 0.3670 0
M  V30 25 Pb 0.6474 -4.3397 1.5258 0
M  V30 26 Pd 0.4916 -0.0961 5.1606 0
M  V30 27 Pb 0.8030 0.7666 5.5693 0
M  V30 28 Pb 0.2661 0.3741 4.3028 0
M  V30 29 Pb 0.7922 -0.5628 5.9903 0
M  V30 30 Pb 0.0757 -0.9568 4.8626 0
M  V30 31 Pd -5.6506 -1.4769 -3.5017 0
M  V30 32 Pb -5.3733 -2.1702 -2.8334 0
M  V30 33 Pb -6.0495 -0.9678 -2.7363 0
M  V30 34 Pb -5.2016 -1.9536 -4.2595 0
M  V30 35 Pb -5.9162 -0.7830 -4.1737 0
M  V30 36 Pd 1.4738 0.1781 -0.6619 0
M  V30 37 Pb 0.5636 -0.1827 -0.8553 0
M  V30 38 Pb 1.7884 -0.0973 -1.5737 0
M  V30 39 Pb 2.4026 0.5209 -0.5077 0
M  V30 40 Pb 1.1113 0.5463 0.2028 0
M  V30 41 Pd -3.5383 2.2978 -0.9008 0
M  V30 42 Pb -2.7509 2.7543 -1.3541 0
M  V30 43 Pb -3.9782 3.1851 -0.7901 0
M  V30 44 Pb -4.3782 1.8432 -0.6068 0
M  V30 45 Pb -3.1156 1.4018 -1.0300 0
M  V30 46 Ag 7.0064 1.2121 2.8857 0
M  V30 47 Fe 6.7095 2.2512 4.9764 0
M  V30 48 Ag 5.7462 2.3031 7.1230 0
M  V30 49 Ag -1.9918 -4.4087 0.7617 0
M  V30 50 Fe -3.5998 -3.5437 -0.7603 0
M  V30 51 Ag -5.1865 -2.6598 -2.2937 0
M  V30 52 Ag -0.3189 -2.8867 -4.6612 0
M  V30 53 Fe -0.1302 -3.9350 -2.5463 0
M  V30 54 Ag -0.0006 -4.8116 -0.3506 0
M  V30 55 Ag 5.3488 -1.7890 2.3531 0
M  V30 56 Fe 3.3604 -3.0422 2.0117 0
M  V30 57 Ag 1.3822 -4.3121 1.6724 0
M  V30 58 Ag -3.4984 5.3098 -5.1163 0
M  V30 59 Fe -4.1840 5.1216 -2.8740 0
M  V30 60 Ag -4.2628 3.8615 -0.8899 0
M  V30 61 Ag -3.9972 3.4825 -6.6982 0
M  V30 62 Fe -5.1992 1.6117 -5.8697 0
M  V30 63 Ag -6.0490 -0.2832 -4.7195 0
M  V30 64 Ba -0.7189 0.0206 -6.5401 0
M  V30 65 Ga -1.2220 1.4098 -6.5621 0
M  V30 66 Ba -1.6690 2.8108 -6.7068 0
M  V30 67 Ba -0.1191 -0.4511 -1.0020 0
M  V30 68 Ga -1.4681 0.1371 -1.0651 0
M  V30 69 Ba -2.8189 0.7211 -1.1294 0
M  V30 70 Ba 3.5833 -0.2625 8.0016 0
M  V30 71 Ga 2.3194 -0.6224 7.3367 0
M  V30 72 Ba 1.0756 -0.8963 6.5972 0
M  V30 73 Ba -6.2978 -0.6067 -2.1247 0
M  V30 74 Ga -5.7017 0.4422 -1.2730 0
M  V30 75 Ba -5.0294 1.4931 -0.4828 0
M  V30 76 Ba -1.5708 4.1217 -4.4687 0
M  V30 77 Ga -1.8794 3.6099 -3.0974 0
M  V30 78 Ba -2.1743 3.1027 -1.7214 0
M  V30 79 Ba 6.6656 -0.7362 4.1737 0
M  V30 80 Ga 6.2730 -0.3808 5.5695 0
M  V30 81 Ba 5.9072 -0.0507 6.9787 0
M  V30 82 Ba -0.7614 -3.8491 2.9028 0
M  V30 83 Ga -0.4822 -2.7012 3.7857 0
M  V30 84 Ba -0.2820 -1.6095 4.7563 0
M  V30 85 Ba 5.6341 0.4103 1.0153 0
M  V30 86 Ga 4.3546 0.5516 0.2907 0
M  V30 87 Ba 3.1191 0.7504 -0.4938 0
M  V30 88 Ba 3.3010 2.0839 7.6515 0
M  V30 89 Ga 2.1208 1.7821 6.8164 0
M  V30 90 Ba 0.9882 1.3896 5.9529 0
M  V30 91 Ba -2.1597 -2.0855 -6.0407 0
M  V30 92 Ga -3.5118 -2.1679 -5.4489 0
M  V30 93 Ba -4.8657 -2.2533 -4.8617 0
M  V30 94 Ba 0.1250 0.7686 3.6760 0
M  V30 95 Ga 0.4834 0.7552 2.2378 0
M  V30 96 Ba 0.7549 0.8732 0.7857 0
M  V30 97 Ba 0.9523 -0.9491 -4.9220 0
M  V30 98 Ga 1.4805 -0.5935 -3.5878 0
M  V30 99 Ba 2.0443 -0.2377 -2.2682 0
M  V30 END ATOM
M  V30 BEGIN BOND
M  V30 1 1 1 2
M  V30 2 1 1 3
M  V30 3 1 1 4
M  V30 4 1 1 5
M  V30 5 1 6 7
M  V30 6 1 6 8
M  V30 7 1 6 9
M  V30 8 1 6 10
M  V30 9 1 11 12
M  V30 10 1 11 13
M  V30 11 1 11 14
M  V30 12 1 11 15
M  V30 13 1 16 17
M  V30 14 1 16 18
M  V30 15 1 16 19
M  V30 16 1 16 20
M  V30 17 1 21 22
M  V30 18 1 21 23
M  V30 19 1 21 24
M  V30 20 1 21 25
M  V30 21 1 26 27
M  V30 22 1 26 28
M  V30 23 1 26 29
M  V30 24 1 26 30
M  V30 25 1 31 32
M  V30 26 1 31 33
M  V30 27 1 31 34
M  V30 28 1 31 35
M  V30 29 1 36 37
M  V30 30 1 36 38
M  V30 31 1 36 39
M  V30 32 1 36 40
M  V30 33 1 41 42
M  V30 34 1 41 43
M  V30 35 1 41 44
M  V30 36 1 41 45
M  V30 37 1 46 47
M  V30 38 1 47 48
M  V30 39 1 49 50
M  V30 40 1 50 51
M  V30 41 1 52 53
M  V30 42 1 53 54
M  V30 43 1 55 56
M  V30 44 1 56 57
M  V30 45 1 58 59
M  V30 46 1 59 60
M  V30 47 1 61 62
M  V30 48 1 62 63
M  V30 49 1 64 65
M  V30 50 1 65 66
M  V30 51 1 67 68
M  V30 52 1 68 69
M  V30 53 1 70 71
M  V30 54 1 71 72
M  V30 55 1 73 74
M  V30 56 1 74 75
M  V30 57 1 76 77
M  V30 58 1 77 78
M  V30 59 1 79 80
M  V30 60 1 80 81
M  V30 61 1 82 83
M  V30 62 1 83 84
M  V30 63 1 85 86
M  V30 64 1 86 87
M  V30 65 1 88 89
M  V30 66 1 89 90
M  V30 67 1 91 92
M  V30 68 1 92 93
M  V30 69 1 94 95
M  V30 70 1 95 96
M  V30 71 1 97 98
M  V30 72 1 98 99
M  V30 73 1 2 55
M  V30 74 1 3 46
M  V30 75 1 4 79
M  V30 76 1 5 85
M  V30 77 1 7 88
M  V30 78 1 8 81
M  V30 79 1 9 48
M  V30 80 1 10 70
M  V30 81 1 12 91
M  V30 82 1 13 97
M  V30 83 1 14 64
M  V30 84 1 15 52
M  V30 85 1 17 58
M  V30 86 1 18 61
M  V30 87 1 19 76
M  V30 88 1 20 66
M  V30 89 1 22 49
M  V30 90 1 23 82
M  V30 91 1 24 54
M  V30 92 1 25 57
M  V30 93 1 27 90
M  V30 94 1 28 94
M  V30 95 1 29 72
M  V30 96 1 30 84
M  V30 97 1 32 51
M  V30 98 1 33 73
M  V30 99 1 34 93
M  V30 100 1 35 63
M  V30 101 1 37 67
M  V30 102 1 38 99
M  V30 103 1 39 87
M  V30 104 1 40 96
M  V30 105 1 42 78
M  V30 106 1 43 60
M  V30 107 1 44 75
M  V30 108 1 45 69
M  V30 END BOND
M  V30 END CTAB
M  END

$$$$
