
     RDKit          3D

  0  0  0  0  0  0  0  0  0  0999 V3000
M  V30 BEGIN CTAB
M  V30 COUNTS 99 108 0 0 0
M  V30 BEGIN ATOM
M  V30 1 Pd 0.2943 -4.8954 -1.3861 0
M  V30 2 Pb -0.2352 -4.4600 -2.1123 0
M  V30 3 Pb -0.5523 -5.2909 -1.0208 0
M  V30 4 Pb 1.1355 -4.5661 -1.8204 0
M  V30 5 Pb 0.8398 -5.2687 -0.6334 0
M  V30 6 Pd -5.9321 -1.4693 4.2329 0
M  V30 7 Pb -5.4776 -0.9868 3.4863 0
M  V30 8 Pb -6.6389 -1.8234 3.6195 0
M  V30 9 Pb -5.1554 -1.2154 4.8066 0
M  V30 10 Pb -6.3216 -2.0316 4.9602 0
M  V30 11 Pd 0.1341 5.6371 -1.3758 0
M  V30 12 Pb -0.5367 4.9102 -1.5189 0
M  V30 13 Pb -0.1499 5.6876 -0.4163 0
M  V30 14 Pb 0.7903 6.3842 -1.2406 0
M  V30 15 Pb 0.4088 5.5566 -2.3364 0
M  V30 16 Pd 5.4379 6.0041 -1.0308 0
M  V30 17 Pb 4.7591 6.7370 -0.9987 0
M  V30 18 Pb 5.4402 6.0118 -2.0298 0
M  V30 19 Pb 5.3567 5.8799 -0.0453 0
M  V30 20 Pb 6.0261 5.1991 -1.0825 0
M  V30 21 Pd 0.5902 2.1749 2.5627 0
M  V30 22 Pb -0.2576 1.7340 2.2659 0
M  V30 23 Pb 0.1184 3.0573 2.5456 0
M  V30 24 Pb 1.4229 2.6590 2.8243 0
M  V30 25 Pb 1.1134 1.3192 2.5194 0
M  V30 26 Pd 4.6815 0.3694 -5.1889 0
M  V30 27 Pb 4.7961 1.3327 -5.4330 0
M  V30 28 Pb 3.9762 0.2719 -5.8898 0
M  V30 29 Pb 4.5434 -0.5700 -4.8716 0
M  V30 30 Pb 5.3574 0.5255 -4.4708 0
M  V30 31 Pd -0.3894 1.7063 -4.9863 0
M  V30 32 Pb -0.7747 0.7868 -4.9173 0
M  V30 33 Pb 0.1835 1.3846 -5.7409 0
M  V30 34 Pb 0.0120 2.6234 -5.0347 0
M  V30 35 Pb -0.9520 2.0049 -4.2168 0
M  V30 36 Pd 0.9757 -3.4779 3.7766 0
M  V30 37 Pb 1.4791 -2.7150 3.3687 0
M  V30 38 Pb 0.4547 -4.2365 4.1652 0
M  V30 39 Pb 0.4651 -2.8451 4.3585 0
M  V30 40 Pb 1.4316 -4.1323 3.1703 0
M  V30 41 Pd -5.8045 -6.0195 3.4564 0
M  V30 42 Pb -6.5387 -5.5348 2.9810 0
M  V30 43 Pb -5.3551 -6.2500 2.5925 0
M  V30 44 Pb -5.0088 -6.3809 3.9359 0
M  V30 45 Pb -6.2093 -5.7244 4.3212 0
M  V30 46 Ag -5.0629 -0.6612 2.9547 0
M  V30 47 Fe -3.0006 0.4068 2.4590 0
M  V30 48 Ag -0.9181 1.4650 2.0310 0
M  V30 49 Ag -0.6141 -4.0870 -2.6395 0
M  V30 50 Fe -0.8767 -2.0250 -3.7859 0
M  V30 51 Ag -1.0369 0.0875 -4.8567 0
M  V30 52 Ag 5.2225 5.6955 0.6653 0
M  V30 53 Fe 3.7068 4.4162 1.9644 0
M  V30 54 Ag 2.0347 3.0653 2.9655 0
M  V30 55 Ag 5.4191 5.8863 -2.7679 0
M  V30 56 Fe 5.1679 4.0871 -4.2968 0
M  V30 57 Ag 4.8908 2.0716 -5.5213 0
M  V30 58 Ag 6.3848 4.5506 -1.1841 0
M  V30 59 Fe 6.2625 2.5660 -2.4779 0
M  V30 60 Ag 5.8303 0.7431 -3.9334 0
M  V30 61 Ag -4.5087 -1.0797 5.1580 0
M  V30 62 Fe -2.2061 -1.6518 5.0839 0
M  V30 63 Ag 0.0247 -2.4012 4.7723 0
M  V30 64 Ag 1.7615 -4.3633 -2.1850 0
M  V30 65 Fe 3.0880 -2.7977 -3.3849 0
M  V30 66 Ag 4.4424 -1.2580 -4.5873 0
M  V30 67 Ag 0.0339 -4.7977 4.4271 0
M  V30 68 Fe -2.1223 -5.7864 4.4319 0
M  V30 69 Ag -4.3591 -6.5564 4.2595 0
M  V30 70 Ag -1.2006 -5.6167 -0.8172 0
M  V30 71 Fe -3.0781 -5.9885 0.5934 0
M  V30 72 Ag -4.9767 -6.4055 1.9627 0
M  V30 73 Ba 1.5739 0.7257 2.4543 0
M  V30 74 Ga 1.6648 -0.7136 2.7780 0
M  V30 75 Ba 1.8626 -2.1527 3.0518 0
M  V30 76 Ba 0.6048 5.4783 -3.0585 0
M  V30 77 Ga 0.4608 4.3999 -4.0593 0
M  V30 78 Ba 0.3106 3.3137 -5.0507 0
M  V30 79 Ba -6.5884 -2.5319 5.4483 0
M  V30 80 Ga -6.5893 -3.9956 5.2890 0
M  V30 81 Ba -6.4974 -5.4240 4.9439 0
M  V30 82 Ba -7.1265 -2.1800 3.1740 0
M  V30 83 Ga -7.1683 -3.6220 2.8632 0
M  V30 84 Ba -7.0501 -5.0805 2.6730 0
M  V30 85 Ba -1.0468 4.3731 -1.6331 0
M  V30 86 Ga -1.2119 3.2980 -2.6275 0
M  V30 87 Ba -1.3608 2.2283 -3.6303 0
M  V30 88 Ba 1.2718 6.9565 -1.1484 0
M  V30 89 Ga 2.7384 7.1120 -1.0591 0
M  V30 90 Ba 4.2074 7.2442 -0.9719 0
M  V30 91 Ba 1.2797 -5.5082 -0.0727 0
M  V30 92 Ga 1.5084 -5.0827 1.3239 0
M  V30 93 Ba 1.7335 -4.6535 2.7200 0
M  V30 94 Ba 3.4317 0.2503 -6.4039 0
M  V30 95 Ga 2.0185 0.6708 -6.3707 0
M  V30 96 Ba 0.6112 1.1049 -6.2906 0
M  V30 97 Ba -0.3812 5.6955 0.2992 0
M  V30 98 Ga -0.3010 4.7289 1.4132 0
M  V30 99 Ba -0.1998 3.7361 2.5023 0
M  V30 END ATOM
M  V30 BEGIN BOND
M  V30 1 1 1 2
M  V30 2 1 1 3
M  V30 3 1 1 4
M  V30 4 1 1 5
M  V30 5 1 6 7
M  V30 6 1 6 8
M  V30 7 1 6 9
M  V30 8 1 6 10
M  V30 9 1 11 12
M  V30 10 1 11 13
M  V30 11 1 11 14
M  V30 12 1 11 15
M  V30 13 1 16 17
M  V30 14 1 16 18
M  V30 15 1 16 19
M  V30 16 1 16 20
M  V30 17 1 21 22
M  V30 18 1 21 23
M  V30 19 1 21 24
M  V30 20 1 21 25
M  V30 21 1 26 27
M  V30 22 1 26 28
M  V30 23 1 26 29
M  V30 24 1 26 30
M  V30 25 1 31 32
M  V30 26 1 31 33
M  V30 27 1 31 34
M  V30 28 1 31 35
M  V30 29 1 36 37
M  V30 30 1 36 38
M  V30 31 1 36 39
M  V30 32 1 36 40
M  V30 33 1 41 42
M  V30 34 1 41 43
M  V30 35 1 41 44
M  V30 36 1 41 45
M  V30 37 1 46 47
M  V30 38 1 47 48
M  V30 39 1 49 50
M  V30 40 1 50 51
M  V30 41 1 52 53
M  V30 42 1 53 54
M  V30 43 1 55 56
M  V30 44 1 56 57
M  V30 45 1 58 59
M  V30 46 1 59 60
M  V30 47 1 61 62
M  V30 48 1 62 63
M  V30 49 1 64 65
M  V30 50 1 65 66
M  V30 51 1 67 68
M  V30 52 1 68 69
M  V30 53 1 70 71
M  V30 54 1 71 72
M  V30 55 1 73 74
M  V30 56 1 74 75
M  V30 57 1 76 77
M  V30 58 1 77 78
M  V30 59 1 79 80
M  V30 60 1 80 81
M  V30 61 1 82 83
M  V30 62 1 83 84
M  V30 63 1 85 86
M  V30 64 1 86 87
M  V30 65 1 88 89
M  V30 66 1 89 90
M  V30 67 1 91 92
M  V30 68 1 92 93
M  V30 69 1 94 95
M  V30 70 1 95 96
M  V30 71 1 97 98
M  V30 72 1 98 99
M  V30 73 1 2 49
M  V30 74 1 3 70
M  V30 75 1 4 64
M  V30 76 1 5 91
M  V30 77 1 7 46
M  V30 78 1 8 82
M  V30 79 1 9 61
M  V30 80 1 10 79
M  V30 81 1 12 85
M  V30 82 1 13 97
M  V30 83 1 14 88
M  V30 84 1 15 76
M  V30 85 1 17 90
M  V30 86 1 18 55
M  V30 87 1 19 52
M  V30 88 1 20 58
M  V30 89 1 22 48
M  V30 90 1 23 99
M  V30 91 1 24 54
M  V30 92 1 25 73
M  V30 93 1 27 57
M  V30 94 1 28 94
M  V30 95 1 29 66
M  V30 96 1 30 60
M  V30 97 1 32 51
M  V30 98 1 33 96
M  V30 99 1 34 78
M  V30 100 1 35 87
M  V30 101 1 37 75
M  V30 102 1 38 67
M  V30 103 1 39 63
M  V30 104 1 40 93
M  V30 105 1 42 84
M  V30 106 1 43 72
M  V30 107 1 44 69
M  V30 108 1 45 81
M  V30 END BOND
M  V30 END CTAB
M  END

$$$$
