
     RDKit          3D

  0  0  0  0  0  0  0  0  0  0999 V3000
M  V30 BEGIN CTAB
M  V30 COUNTS 99 108 0 0 0
M  V30 BEGIN ATOM
M  V30 1 Pd 1.9734 4.5860 3.3841 0
M  V30 2 Pb 2.4734 4.3098 2.5641 0
M  V30 3 Pb 2.8199 4.6895 3.9102 0
M  V30 4 Pb 1.4671 4.6794 4.2377 0
M  V30 5 Pb 1.1216 4.5981 2.8584 0
M  V30 6 Pd 2.0731 -1.3303 -1.4312 0
M  V30 7 Pb 1.9734 -1.7324 -0.5191 0
M  V30 8 Pb 2.4707 -0.4850 -1.0648 0
M  V30 9 Pb 2.0793 -0.8994 -2.3324 0
M  V30 10 Pb 1.6720 -2.1583 -1.8235 0
M  V30 11 Pd -8.2641 3.5739 -6.3923 0
M  V30 12 Pb -8.8584 3.4336 -5.6003 0
M  V30 13 Pb -7.4726 3.2650 -5.8647 0
M  V30 14 Pb -9.0579 3.8544 -6.9289 0
M  V30 15 Pb -7.6648 4.1210 -7.0002 0
M  V30 16 Pd -1.0808 4.5690 -3.5365 0
M  V30 17 Pb -0.5488 3.9554 -4.1163 0
M  V30 18 Pb -1.3472 4.7615 -2.5926 0
M  V30 19 Pb -1.6886 5.3490 -3.3889 0
M  V30 20 Pb -1.8868 3.9889 -3.6496 0
M  V30 21 Pd 3.5657 2.3136 7.6095 0
M  V30 22 Pb 2.6860 2.7431 7.3939 0
M  V30 23 Pb 4.4361 1.9316 7.9006 0
M  V30 24 Pb 3.1401 1.4081 7.7709 0
M  V30 25 Pb 4.0163 3.1364 7.2751 0
M  V30 26 Pd 1.2184 -9.1124 -1.7897 0
M  V30 27 Pb 1.4209 -10.0388 -1.4834 0
M  V30 28 Pb 1.8270 -9.2810 -2.5665 0
M  V30 29 Pb 0.8783 -8.9298 -0.8599 0
M  V30 30 Pb 1.0132 -8.1833 -2.0982 0
M  V30 31 Pd 4.0625 -3.2422 5.8723 0
M  V30 32 Pb 3.3407 -3.2730 5.1823 0
M  V30 33 Pb 4.8246 -3.1512 6.5040 0
M  V30 34 Pb 4.5860 -3.9031 5.3347 0
M  V30 35 Pb 3.5416 -2.5634 6.4248 0
M  V30 36 Pd -7.5505 8.4665 -5.4593 0
M  V30 37 Pb -7.0942 8.0330 -6.2542 0
M  V30 38 Pb -8.1239 8.4698 -4.6400 0
M  V30 39 Pb -6.7335 8.3333 -4.8982 0
M  V30 40 Pb -8.3616 8.6289 -6.0185 0
M  V30 41 Pd 4.3916 -9.7761 1.6511 0
M  V30 42 Pb 4.8410 -8.9754 2.0470 0
M  V30 43 Pb 3.9414 -10.5704 1.2523 0
M  V30 44 Pb 3.4829 -9.4761 1.9640 0
M  V30 45 Pb 5.1793 -9.9815 1.0682 0
M  V30 46 Ag -6.8837 3.0133 -5.4742 0
M  V30 47 Fe -4.6916 3.2937 -4.6051 0
M  V30 48 Ag -2.5000 3.5658 -3.7321 0
M  V30 49 Ag -2.1562 5.9250 -3.2811 0
M  V30 50 Fe -4.1386 7.0866 -3.8812 0
M  V30 51 Ag -6.1194 8.2544 -4.4747 0
M  V30 52 Ag 1.3661 -2.7737 -2.1242 0
M  V30 53 Fe 1.1209 -5.1344 -2.2171 0
M  V30 54 Ag 0.8513 -7.4912 -2.3383 0
M  V30 55 Ag -9.2281 3.6523 -4.9855 0
M  V30 56 Fe -9.2091 5.8675 -4.1293 0
M  V30 57 Ag -8.5714 8.1552 -4.1269 0
M  V30 58 Ag 0.4938 4.6725 2.4526 0
M  V30 59 Fe -0.5528 4.7645 0.3220 0
M  V30 60 Ag -1.4897 4.8328 -1.8599 0
M  V30 61 Ag 2.0184 -0.5164 -2.9727 0
M  V30 62 Fe 1.0180 1.4288 -3.8910 0
M  V30 63 Ag -0.1243 3.4335 -4.4422 0
M  V30 64 Ag 4.9794 -4.3958 4.9286 0
M  V30 65 Fe 5.0780 -6.3867 3.6378 0
M  V30 66 Ag 5.1797 -8.3772 2.3465 0
M  V30 67 Ag -9.5972 4.2262 -7.2776 0
M  V30 68 Fe -9.8641 6.5603 -7.2618 0
M  V30 69 Ag -8.9633 8.5721 -6.4489 0
M  V30 70 Ag 1.8290 -2.0441 0.1498 0
M  V30 71 Fe 2.3457 -2.6546 2.3870 0
M  V30 72 Ag 2.8385 -3.2770 4.6263 0
M  V30 73 Ag 5.0255 1.5339 8.1099 0
M  V30 74 Fe 5.6359 -0.7194 7.7972 0
M  V30 75 Ag 5.3581 -2.8983 6.9493 0
M  V30 76 Ag 2.8151 3.9988 1.9733 0
M  V30 77 Fe 2.8208 2.1018 0.5406 0
M  V30 78 Ag 2.7667 0.1735 -0.8490 0
M  V30 79 Ag 2.4753 -9.4461 -2.9004 0
M  V30 80 Fe 4.4499 -9.8847 -1.6712 0
M  V30 81 Ag 5.5385 -10.0861 0.4209 0
M  V30 82 Ba 0.7632 -8.8316 -0.1156 0
M  V30 83 Ga 1.7158 -9.0233 1.0152 0
M  V30 84 Ba 2.7627 -9.2514 2.0520 0
M  V30 85 Ba -7.2472 4.6531 -7.3648 0
M  V30 86 Ga -7.0179 6.1159 -7.1077 0
M  V30 87 Ba -6.8209 7.5752 -6.8076 0
M  V30 88 Ba 3.4218 4.8277 4.3400 0
M  V30 89 Ga 3.9126 4.3012 5.6271 0
M  V30 90 Ba 4.3289 3.7085 6.9114 0
M  V30 91 Ba 1.6097 -10.7091 -1.2161 0
M  V30 92 Ga 2.5770 -11.0152 -0.1558 0
M  V30 93 Ba 3.5734 -11.1249 0.9160 0
M  V30 94 Ba 1.1242 4.6374 4.9004 0
M  V30 95 Ga 1.5489 3.8966 6.1034 0
M  V30 96 Ba 2.0529 3.1264 7.2566 0
M  V30 97 Ba 2.8304 0.7143 7.8517 0
M  V30 98 Ga 3.0322 -0.6711 7.3267 0
M  V30 99 Ba 3.1337 -2.0922 6.8736 0
M  V30 END ATOM
M  V30 BEGIN BOND
M  V30 1 1 1 2
M  V30 2 1 1 3
M  V30 3 1 1 4
M  V30 4 1 1 5
M  V30 5 1 6 7
M  V30 6 1 6 8
M  V30 7 1 6 9
M  V30 8 1 6 10
M  V30 9 1 11 12
M  V30 10 1 11 13
M  V30 11 1 11 14
M  V30 12 1 11 15
M  V30 13 1 16 17
M  V30 14 1 16 18
M  V30 15 1 16 19
M  V30 16 1 16 20
M  V30 17 1 21 22
M  V30 18 1 21 23
M  V30 19 1 21 24
M  V30 20 1 21 25
M  V30 21 1 26 27
M  V30 22 1 26 28
M  V30 23 1 26 29
M  V30 24 1 26 30
M  V30 25 1 31 32
M  V30 26 1 31 33
M  V30 27 1 31 34
M  V30 28 1 31 35
M  V30 29 1 36 37
M  V30 30 1 36 38
M  V30 31 1 36 39
M  V30 32 1 36 40
M  V30 33 1 41 42
M  V30 34 1 41 43
M  V30 35 1 41 44
M  V30 36 1 41 45
M  V30 37 1 46 47
M  V30 38 1 47 48
M  V30 39 1 49 50
M  V30 40 1 50 51
M  V30 41 1 52 53
M  V30 42 1 53 54
M  V30 43 1 55 56
M  V30 44 1 56 57
M  V30 45 1 58 59
M  V30 46 1 59 60
M  V30 47 1 61 62
M  V30 48 1 62 63
M  V30 49 1 64 65
M  V30 50 1 65 66
M  V30 51 1 67 68
M  V30 52 1 68 69
M  V30 53 1 70 71
M  V30 54 1 71 72
M  V30 55 1 73 74
M  V30 56 1 74 75
M  V30 57 1 76 77
M  V30 58 1 77 78
M  V30 59 1 79 80
M  V30 60 1 80 81
M  V30 61 1 82 83
M  V30 62 1 83 84
M  V30 63 1 85 86
M  V30 64 1 86 87
M  V30 65 1 88 89
M  V30 66 1 89 90
M  V30 67 1 91 92
M  V30 68 1 92 93
M  V30 69 1 94 95
M  V30 70 1 95 96
M  V30 71 1 97 98
M  V30 72 1 98 99
M  V30 73 1 2 76
M  V30 74 1 3 88
M  V30 75 1 4 94
M  V30 76 1 5 58
M  V30 77 1 7 70
M  V30 78 1 8 78
M  V30 79 1 9 61
M  V30 80 1 10 52
M  V30 81 1 12 55
M  V30 82 1 13 46
M  V30 83 1 14 67
M  V30 84 1 15 85
M  V30 85 1 17 63
M  V30 86 1 18 60
M  V30 87 1 19 49
M  V30 88 1 20 48
M  V30 89 1 22 96
M  V30 90 1 23 73
M  V30 91 1 24 97
M  V30 92 1 25 90
M  V30 93 1 27 91
M  V30 94 1 28 79
M  V30 95 1 29 82
M  V30 96 1 30 54
M  V30 97 1 32 72
M  V30 98 1 33 75
M  V30 99 1 34 64
M  V30 100 1 35 99
M  V30 101 1 37 87
M  V30 102 1 38 57
M  V30 103 1 39 51
M  V30 104 1 40 69
M  V30 105 1 42 66
M  V30 106 1 43 93
M  V30 107 1 44 84
M  V30 108 1 45 81
M  V30 END BOND
M  V30 END CTAB
M  END

$$$$
