
     RDKit          3D

  0  0  0  0  0  0  0  0  0  0999 V3000
M  V30 BEGIN CTAB
M  V30 COUNTS 99 108 0 0 0
M  V30 BEGIN ATOM
M  V30 1 Pd 0.5637 -1.7657 -4.9824 0
M  V30 2 Pb 0.1436 -0.9079 -5.2792 0
M  V30 3 Pb 1.4549 -1.4062 -5.2618 0
M  V30 4 Pb -0.3352 -2.1144 -4.7113 0
M  V30 5 Pb 0.9984 -2.6090 -4.6645 0
M  V30 6 Pd -1.8278 5.2734 0.8276 0
M  V30 7 Pb -1.3979 5.6829 0.0231 0
M  V30 8 Pb -1.6614 6.0924 1.3794 0
M  V30 9 Pb -2.2079 4.8394 1.6451 0
M  V30 10 Pb -1.9345 4.4317 0.2972 0
M  V30 11 Pd 0.8397 4.9250 4.6653 0
M  V30 12 Pb 1.7571 5.2481 4.4375 0
M  V30 13 Pb -0.0892 4.5722 4.7612 0
M  V30 14 Pb 0.4520 5.8324 4.5105 0
M  V30 15 Pb 1.2165 4.0001 4.6571 0
M  V30 16 Pd 2.4640 -2.7346 -0.3697 0
M  V30 17 Pb 2.2141 -3.4939 0.2331 0
M  V30 18 Pb 2.4899 -3.3707 -1.1394 0
M  V30 19 Pb 2.3775 -2.0613 0.3680 0
M  V30 20 Pb 2.7717 -2.0157 -0.9924 0
M  V30 21 Pd 2.4655 3.1245 -4.9092 0
M  V30 22 Pb 2.0234 3.9394 -4.5326 0
M  V30 23 Pb 3.3564 3.4521 -4.5927 0
M  V30 24 Pb 1.5776 2.7801 -5.2156 0
M  V30 25 Pb 2.8897 2.2834 -5.2447 0
M  V30 26 Pd -4.9453 -4.2332 0.1638 0
M  V30 27 Pb -4.5616 -3.9847 -0.7277 0
M  V30 28 Pb -5.3643 -4.5050 1.0302 0
M  V30 29 Pb -5.0946 -3.2674 0.3896 0
M  V30 30 Pb -4.7492 -5.2024 -0.0079 0
M  V30 31 Pd 4.9181 2.3443 -0.3943 0
M  V30 32 Pb 4.5424 1.8721 0.4032 0
M  V30 33 Pb 5.1181 3.1060 0.2212 0
M  V30 34 Pb 5.2458 2.8564 -1.1873 0
M  V30 35 Pb 4.6382 1.6086 -1.0102 0
M  V30 36 Pd -2.7065 -6.9031 3.3909 0
M  V30 37 Pb -2.4647 -6.2453 4.0964 0
M  V30 38 Pb -2.9762 -7.3975 2.5658 0
M  V30 39 Pb -3.6692 -6.7300 3.5779 0
M  V30 40 Pb -1.7411 -6.9520 3.1433 0
M  V30 41 Pd -1.7420 -0.1198 1.7899 0
M  V30 42 Pb -1.7526 0.4638 0.9781 0
M  V30 43 Pb -0.7472 -0.0379 1.8869 0
M  V30 44 Pb -2.7291 -0.2519 1.6682 0
M  V30 45 Pb -1.7462 -0.6850 2.6131 0
M  V30 46 Ag 2.4399 5.4033 4.1722 0
M  V30 47 Fe 3.9480 4.6619 2.4960 0
M  V30 48 Ag 5.1722 3.6537 0.7299 0
M  V30 49 Ag 2.0587 -4.1029 0.6450 0
M  V30 50 Fe 0.5482 -5.5224 1.8045 0
M  V30 51 Ag -1.0213 -6.8891 2.9487 0
M  V30 52 Ag -1.0501 5.9282 -0.5943 0
M  V30 53 Fe 0.3138 5.3074 -2.4372 0
M  V30 54 Ag 1.6762 4.5266 -4.2194 0
M  V30 55 Ag -2.2993 -5.6390 4.4946 0
M  V30 56 Fe -1.9814 -3.3345 4.0431 0
M  V30 57 Ag -1.7365 -1.1262 3.2175 0
M  V30 58 Ag -1.0185 -2.3655 -4.5253 0
M  V30 59 Fe -2.6275 -3.0852 -2.9307 0
M  V30 60 Ag -4.3044 -3.8184 -1.4143 0
M  V30 61 Ag 1.5378 3.3378 4.5200 0
M  V30 62 Fe 2.8927 2.2995 2.8703 0
M  V30 63 Ag 4.2367 1.6137 1.0372 0
M  V30 64 Ba -5.1982 -2.5496 0.5922 0
M  V30 65 Ga -4.3263 -1.4529 1.0676 0
M  V30 66 Ba -3.4661 -0.3475 1.5442 0
M  V30 67 Ba -2.4341 4.5351 2.2926 0
M  V30 68 Ga -1.6876 4.3901 3.5551 0
M  V30 69 Ba -0.7957 4.3287 4.7265 0
M  V30 70 Ba 2.1129 -1.1166 -5.4785 0
M  V30 71 Ga 2.6690 0.2502 -5.4866 0
M  V30 72 Ba 3.1839 1.6331 -5.4752 0
M  V30 73 Ba -0.1494 -0.2507 -5.4916 0
M  V30 74 Ga 0.3645 1.1321 -5.4764 0
M  V30 75 Ba 0.9200 2.4985 -5.4420 0
M  V30 76 Ba -4.5829 -5.9345 -0.0752 0
M  V30 77 Ga -3.9083 -6.8562 0.8630 0
M  V30 78 Ba -3.2202 -7.6491 1.9032 0
M  V30 79 Ba -1.9673 3.8076 -0.1190 0
M  V30 80 Ga -1.8874 2.3562 0.1344 0
M  V30 81 Ba -1.8092 0.9019 0.3719 0
M  V30 82 Ba -5.6646 -4.7586 1.6689 0
M  V30 83 Ga -5.0986 -5.6355 2.7060 0
M  V30 84 Ba -4.3787 -6.5103 3.6442 0
M  V30 85 Ba 4.0259 3.6825 -4.3434 0
M  V30 86 Ga 4.7619 3.4770 -3.0819 0
M  V30 87 Ba 5.4496 3.2374 -1.7994 0
M  V30 88 Ba 2.2971 -1.5224 0.8871 0
M  V30 89 Ga 1.1487 -0.7695 1.4368 0
M  V30 90 Ba -0.0009 -0.0177 1.9851 0
M  V30 91 Ba -1.5079 6.6607 1.8466 0
M  V30 92 Ga -0.7062 6.6551 3.0852 0
M  V30 93 Ba 0.1243 6.4687 4.2902 0
M  V30 94 Ba 1.3369 -3.2259 -4.4034 0
M  V30 95 Ga 1.9171 -3.5596 -3.0896 0
M  V30 96 Ba 2.4719 -3.8086 -1.7465 0
M  V30 97 Ba 3.0316 -1.5168 -1.4879 0
M  V30 98 Ga 3.7150 -0.2104 -1.4617 0
M  V30 99 Ba 4.3997 1.0949 -1.5012 0
M  V30 END ATOM
M  V30 BEGIN BOND
M  V30 1 1 1 2
M  V30 2 1 1 3
M  V30 3 1 1 4
M  V30 4 1 1 5
M  V30 5 1 6 7
M  V30 6 1 6 8
M  V30 7 1 6 9
M  V30 8 1 6 10
M  V30 9 1 11 12
M  V30 10 1 11 13
M  V30 11 1 11 14
M  V30 12 1 11 15
M  V30 13 1 16 17
M  V30 14 1 16 18
M  V30 15 1 16 19
M  V30 16 1 16 20
M  V30 17 1 21 22
M  V30 18 1 21 23
M  V30 19 1 21 24
M  V30 20 1 21 25
M  V30 21 1 26 27
M  V30 22 1 26 28
M  V30 23 1 26 29
M  V30 24 1 26 30
M  V30 25 1 31 32
M  V30 26 1 31 33
M  V30 27 1 31 34
M  V30 28 1 31 35
M  V30 29 1 36 37
M  V30 30 1 36 38
M  V30 31 1 36 39
M  V30 32 1 36 40
M  V30 33 1 41 42
M  V30 34 1 41 43
M  V30 35 1 41 44
M  V30 36 1 41 45
M  V30 37 1 46 47
M  V30 38 1 47 48
M  V30 39 1 49 50
M  V30 40 1 50 51
M  V30 41 1 52 53
M  V30 42 1 53 54
M  V30 43 1 55 56
M  V30 44 1 56 57
M  V30 45 1 58 59
M  V30 46 1 59 60
M  V30 47 1 61 62
M  V30 48 1 62 63
M  V30 49 1 64 65
M  V30 50 1 65 66
M  V30 51 1 67 68
M  V30 52 1 68 69
M  V30 53 1 70 71
M  V30 54 1 71 72
M  V30 55 1 73 74
M  V30 56 1 74 75
M  V30 57 1 76 77
M  V30 58 1 77 78
M  V30 59 1 79 80
M  V30 60 1 80 81
M  V30 61 1 82 83
M  V30 62 1 83 84
M  V30 63 1 85 86
M  V30 64 1 86 87
M  V30 65 1 88 89
M  V30 66 1 89 90
M  V30 67 1 91 92
M  V30 68 1 92 93
M  V30 69 1 94 95
M  V30 70 1 95 96
M  V30 71 1 97 98
M  V30 72 1 98 99
M  V30 73 1 2 73
M  V30 74 1 3 70
M  V30 75 1 4 58
M  V30 76 1 5 94
M  V30 77 1 7 52
M  V30 78 1 8 91
M  V30 79 1 9 67
M  V30 80 1 10 79
M  V30 81 1 12 46
M  V30 82 1 13 69
M  V30 83 1 14 93
M  V30 84 1 15 61
M  V30 85 1 17 49
M  V30 86 1 18 96
M  V30 87 1 19 88
M  V30 88 1 20 97
M  V30 89 1 22 54
M  V30 90 1 23 85
M  V30 91 1 24 75
M  V30 92 1 25 72
M  V30 93 1 27 60
M  V30 94 1 28 82
M  V30 95 1 29 64
M  V30 96 1 30 76
M  V30 97 1 32 63
M  V30 98 1 33 48
M  V30 99 1 34 87
M  V30 100 1 35 99
M  V30 101 1 37 55
M  V30 102 1 38 78
M  V30 103 1 39 84
M  V30 104 1 40 51
M  V30 105 1 42 81
M  V30 106 1 43 90
M  V30 107 1 44 66
M  V30 108 1 45 57
M  V30 END BOND
M  V30 END CTAB
M  END

$$$$
