
     RDKit          3D

  0  0  0  0  0  0  0  0  0  0999 V3000
M  V30 BEGIN CTAB
M  V30 COUNTS 99 108 0 0 0
M  V30 BEGIN ATOM
M  V30 1 Pd 2.6626 -1.4957 3.2111 0
M  V30 2 Pb 3.3210 -1.0727 2.5878 0
M  V30 3 Pb 2.8732 -2.3566 2.7394 0
M  V30 4 Pb 2.5867 -0.6670 3.7754 0
M  V30 5 Pb 1.9613 -1.9142 3.7927 0
M  V30 6 Pd -1.2059 -6.3500 -2.3457 0
M  V30 7 Pb -1.1236 -5.3823 -2.5850 0
M  V30 8 Pb -1.2575 -7.3270 -2.1344 0
M  V30 9 Pb -2.0070 -6.1670 -1.7695 0
M  V30 10 Pb -0.3717 -6.5392 -2.8676 0
M  V30 11 Pd 0.1521 4.9446 -4.6109 0
M  V30 12 Pb 0.8368 4.2747 -4.9101 0
M  V30 13 Pb -0.5988 4.3642 -4.9377 0
M  V30 14 Pb -0.4838 5.6096 -4.2193 0
M  V30 15 Pb 0.8963 5.5472 -4.3341 0
M  V30 16 Pd -3.6740 6.5667 1.7299 0
M  V30 17 Pb -3.3241 6.9620 0.8802 0
M  V30 18 Pb -4.0282 6.1207 2.5451 0
M  V30 19 Pb -4.4496 6.2512 1.1910 0
M  V30 20 Pb -2.8168 6.7685 2.2336 0
M  V30 21 Pd -3.4948 1.1460 -2.8164 0
M  V30 22 Pb -2.8284 0.4282 -3.0135 0
M  V30 23 Pb -3.2924 1.5846 -3.6927 0
M  V30 24 Pb -4.1669 1.8507 -2.5976 0
M  V30 25 Pb -3.6552 0.7507 -1.9123 0
M  V30 26 Pd 0.9455 4.0755 4.4660 0
M  V30 27 Pb 0.1245 3.8090 4.9600 0
M  V30 28 Pb 1.7708 4.3622 3.9822 0
M  V30 29 Pb 1.4131 3.2410 4.7653 0
M  V30 30 Pb 0.4681 4.9213 4.1608 0
M  V30 31 Pd 4.4479 3.8114 -2.1120 0
M  V30 32 Pb 4.6965 2.9289 -1.7150 0
M  V30 33 Pb 4.6333 4.2157 -1.2200 0
M  V30 34 Pb 4.1925 4.7053 -2.4678 0
M  V30 35 Pb 4.1598 3.4048 -2.9832 0
M  V30 36 Pd -2.1855 -4.1953 2.6853 0
M  V30 37 Pb -2.6050 -3.3259 2.4286 0
M  V30 38 Pb -1.7700 -5.0632 2.9448 0
M  V30 39 Pb -2.6991 -4.6339 1.9417 0
M  V30 40 Pb -1.6433 -3.7668 3.4111 0
M  V30 41 Pd 2.3907 -8.5387 -0.3014 0
M  V30 42 Pb 1.6686 -9.1537 -0.6083 0
M  V30 43 Pb 2.9936 -7.8081 0.0172 0
M  V30 44 Pb 2.0873 -8.6780 0.6346 0
M  V30 45 Pb 2.5629 -8.2978 -1.2544 0
M  V30 46 Ag -1.0244 -4.6684 -2.7933 0
M  V30 47 Fe -1.7002 -2.3979 -2.9577 0
M  V30 48 Ag -2.3319 -0.1166 -3.1466 0
M  V30 49 Ag 3.7943 -0.8141 2.0655 0
M  V30 50 Fe 4.3542 0.7383 0.3573 0
M  V30 51 Ag 4.8897 2.3071 -1.3439 0
M  V30 52 Ag -3.7609 0.4912 -1.2168 0
M  V30 53 Fe -3.3500 -1.1010 0.4960 0
M  V30 54 Ag -2.9403 -2.6932 2.2090 0
M  V30 55 Ag -4.9306 5.9424 0.7127 0
M  V30 56 Fe -4.9703 4.1886 -0.8813 0
M  V30 57 Ag -4.6529 2.3724 -2.3715 0
M  V30 58 Ag -4.1453 5.7288 3.1629 0
M  V30 59 Fe -2.6521 4.5347 4.5410 0
M  V30 60 Ag -0.5559 3.7127 5.2374 0
M  V30 61 Ag -0.8959 6.1218 -3.8576 0
M  V30 62 Fe -2.0215 6.7130 -1.8507 0
M  V30 63 Ag -3.1181 7.2016 0.1993 0
M  V30 64 Ag -1.4157 -5.6944 3.1270 0
M  V30 65 Fe 0.1624 -7.3003 2.3939 0
M  V30 66 Ag 1.7513 -8.6701 1.2970 0
M  V30 67 Ag 3.1618 -2.9681 2.4044 0
M  V30 68 Fe 3.2214 -5.0954 1.3432 0
M  V30 69 Ag 3.3731 -7.2147 0.2748 0
M  V30 70 Ag 2.3849 4.5765 3.6114 0
M  V30 71 Fe 3.6110 4.5802 1.5805 0
M  V30 72 Ag 4.6982 4.4823 -0.5255 0
M  V30 73 Ba 1.4632 5.9915 -4.1370 0
M  V30 74 Ga 2.7278 5.7253 -3.4391 0
M  V30 75 Ba 3.9640 5.3627 -2.7342 0
M  V30 76 Ba 0.2787 -6.7052 -3.2064 0
M  V30 77 Ga 1.4737 -7.3819 -2.6679 0
M  V30 78 Ba 2.5734 -8.0708 -1.9671 0
M  V30 79 Ba -1.2296 -8.0643 -1.9953 0
M  V30 80 Ga -0.1363 -8.8710 -1.4259 0
M  V30 81 Ba 1.0536 -9.5100 -0.8381 0
M  V30 82 Ba 1.3876 3.7888 -5.0807 0
M  V30 83 Ga 2.6466 3.4372 -4.3842 0
M  V30 84 Ba 3.8869 3.1362 -3.6327 0
M  V30 85 Ba -2.1653 6.9107 2.6078 0
M  V30 86 Ga -1.0401 6.1814 3.2683 0
M  V30 87 Ba 0.1441 5.5873 3.9601 0
M  V30 88 Ba -2.6019 -6.0470 -1.3225 0
M  V30 89 Ga -2.8283 -5.4903 0.0307 0
M  V30 90 Ba -3.0972 -4.9417 1.3793 0
M  V30 91 Ba 2.5890 -0.1122 4.2882 0
M  V30 92 Ga 2.1430 1.2696 4.5726 0
M  V30 93 Ba 1.7770 2.6328 5.0171 0
M  V30 94 Ba 1.4161 -2.1744 4.2418 0
M  V30 95 Ga 0.1033 -2.8353 4.0812 0
M  V30 96 Ba -1.2145 -3.4958 3.9666 0
M  V30 97 Ba -1.1572 3.9463 -5.2234 0
M  V30 98 Ga -2.1328 2.9366 -4.7618 0
M  V30 99 Ba -3.1244 1.9245 -4.3407 0
M  V30 END ATOM
M  V30 BEGIN BOND
M  V30 1 1 1 2
M  V30 2 1 1 3
M  V30 3 1 1 4
M  V30 4 1 1 5
M  V30 5 1 6 7
M  V30 6 1 6 8
M  V30 7 1 6 9
M  V30 8 1 6 10
M  V30 9 1 11 12
M  V30 10 1 11 13
M  V30 11 1 11 14
M  V30 12 1 11 15
M  V30 13 1 16 17
M  V30 14 1 16 18
M  V30 15 1 16 19
M  V30 16 1 16 20
M  V30 17 1 21 22
M  V30 18 1 21 23
M  V30 19 1 21 24
M  V30 20 1 21 25
M  V30 21 1 26 27
M  V30 22 1 26 28
M  V30 23 1 26 29
M  V30 24 1 26 30
M  V30 25 1 31 32
M  V30 26 1 31 33
M  V30 27 1 31 34
M  V30 28 1 31 35
M  V30 29 1 36 37
M  V30 30 1 36 38
M  V30 31 1 36 39
M  V30 32 1 36 40
M  V30 33 1 41 42
M  V30 34 1 41 43
M  V30 35 1 41 44
M  V30 36 1 41 45
M  V30 37 1 46 47
M  V30 38 1 47 48
M  V30 39 1 49 50
M  V30 40 1 50 51
M  V30 41 1 52 53
M  V30 42 1 53 54
M  V30 43 1 55 56
M  V30 44 1 56 57
M  V30 45 1 58 59
M  V30 46 1 59 60
M  V30 47 1 61 62
M  V30 48 1 62 63
M  V30 49 1 64 65
M  V30 50 1 65 66
M  V30 51 1 67 68
M  V30 52 1 68 69
M  V30 53 1 70 71
M  V30 54 1 71 72
M  V30 55 1 73 74
M  V30 56 1 74 75
M  V30 57 1 76 77
M  V30 58 1 77 78
M  V30 59 1 79 80
M  V30 60 1 80 81
M  V30 61 1 82 83
M  V30 62 1 83 84
M  V30 63 1 85 86
M  V30 64 1 86 87
M  V30 65 1 88 89
M  V30 66 1 89 90
M  V30 67 1 91 92
M  V30 68 1 92 93
M  V30 69 1 94 95
M  V30 70 1 95 96
M  V30 71 1 97 98
M  V30 72 1 98 99
M  V30 73 1 2 49
M  V30 74 1 3 67
M  V30 75 1 4 91
M  V30 76 1 5 94
M  V30 77 1 7 46
M  V30 78 1 8 79
M  V30 79 1 9 88
M  V30 80 1 10 76
M  V30 81 1 12 82
M  V30 82 1 13 97
M  V30 83 1 14 61
M  V30 84 1 15 73
M  V30 85 1 17 63
M  V30 86 1 18 58
M  V30 87 1 19 55
M  V30 88 1 20 85
M  V30 89 1 22 48
M  V30 90 1 23 99
M  V30 91 1 24 57
M  V30 92 1 25 52
M  V30 93 1 27 60
M  V30 94 1 28 70
M  V30 95 1 29 93
M  V30 96 1 30 87
M  V30 97 1 32 51
M  V30 98 1 33 72
M  V30 99 1 34 75
M  V30 100 1 35 84
M  V30 101 1 37 54
M  V30 102 1 38 64
M  V30 103 1 39 90
M  V30 104 1 40 96
M  V30 105 1 42 81
M  V30 106 1 43 69
M  V30 107 1 44 66
M  V30 108 1 45 78
M  V30 END BOND
M  V30 END CTAB
M  END

$$$$
