
     RDKit          3D

  0  0  0  0  0  0  0  0  0  0999 V3000
M  V30 BEGIN CTAB
M  V30 COUNTS 99 108 0 0 0
M  V30 BEGIN ATOM
M  V30 1 Pd -3.1859 4.9621 -0.9496 0
M  V30 2 Pb -3.4707 4.8246 0.0029 0
M  V30 3 Pb -2.2527 5.1261 -0.6429 0
M  V30 4 Pb -4.1253 4.8451 -1.2507 0
M  V30 5 Pb -2.8806 5.0021 -1.9224 0
M  V30 6 Pd 2.0652 -4.7166 0.2202 0
M  V30 7 Pb 1.5267 -5.5531 0.2699 0
M  V30 8 Pb 2.6899 -3.9738 0.0512 0
M  V30 9 Pb 2.1452 -4.6994 1.2265 0
M  V30 10 Pb 1.8117 -4.5615 -0.7486 0
M  V30 11 Pd -2.9098 -3.5312 -1.2099 0
M  V30 12 Pb -2.6898 -2.6003 -0.9302 0
M  V30 13 Pb -2.2916 -3.8509 -0.4673 0
M  V30 14 Pb -3.1192 -4.4880 -1.3966 0
M  V30 15 Pb -3.3818 -3.2454 -2.0418 0
M  V30 16 Pd 2.3707 -2.9160 1.4544 0
M  V30 17 Pb 2.9224 -3.6457 1.8676 0
M  V30 18 Pb 1.5436 -3.4961 1.3291 0
M  V30 19 Pb 1.7926 -2.1449 1.2503 0
M  V30 20 Pb 3.1316 -2.2852 1.6587 0
M  V30 21 Pd 3.7235 2.2698 0.5817 0
M  V30 22 Pb 3.1759 2.8003 -0.0695 0
M  V30 23 Pb 4.0064 1.6702 -0.1465 0
M  V30 24 Pb 3.5008 2.8307 1.3775 0
M  V30 25 Pb 4.1671 1.6023 1.1834 0
M  V30 26 Pd 0.3886 -1.4746 4.9369 0
M  V30 27 Pb 0.8597 -1.8804 5.7249 0
M  V30 28 Pb -0.0316 -1.1034 4.1079 0
M  V30 29 Pb 0.7847 -2.2732 4.4387 0
M  V30 30 Pb 0.0226 -0.6883 5.4417 0
M  V30 31 Pd -2.8181 1.9503 -5.8970 0
M  V30 32 Pb -3.7690 2.2073 -5.7695 0
M  V30 33 Pb -1.8676 1.6609 -6.0501 0
M  V30 34 Pb -3.1397 1.0218 -6.0554 0
M  V30 35 Pb -2.5419 2.8579 -5.5336 0
M  V30 36 Pd 0.9424 -0.0833 -2.8743 0
M  V30 37 Pb 0.9391 -1.1022 -2.9239 0
M  V30 38 Pb 0.7396 -0.0983 -1.9104 0
M  V30 39 Pb 1.0331 0.9143 -2.7711 0
M  V30 40 Pb 1.0101 0.0148 -3.8660 0
M  V30 41 Pd -0.5774 3.6967 3.5654 0
M  V30 42 Pb -0.7375 3.1347 4.3828 0
M  V30 43 Pb 0.4015 3.7197 3.7438 0
M  V30 44 Pb -1.5567 3.7554 3.3614 0
M  V30 45 Pb -0.3804 4.2294 2.7452 0
M  V30 46 Ag -2.4766 -1.9680 -0.5950 0
M  V30 47 Fe -1.4150 -1.2688 1.4093 0
M  V30 48 Ag -0.3378 -0.8309 3.4788 0
M  V30 49 Ag -4.7615 4.7091 -1.6014 0
M  V30 50 Fe -5.1452 3.6025 -3.6409 0
M  V30 51 Ag -4.4405 2.4308 -5.5549 0
M  V30 52 Ag 3.2487 -4.0455 2.4099 0
M  V30 53 Fe 2.7278 -3.6598 4.6783 0
M  V30 54 Ag 1.3378 -2.3463 6.0585 0
M  V30 55 Ag -3.6383 -3.0574 -2.7196 0
M  V30 56 Fe -3.6146 -1.4486 -4.4622 0
M  V30 57 Ag -3.4265 0.3347 -6.0141 0
M  V30 58 Ag 1.0699 -6.1342 0.1946 0
M  V30 59 Fe -1.1353 -6.3135 -0.6070 0
M  V30 60 Ag -3.0707 -5.2258 -1.3805 0
M  V30 61 Ag 3.1216 -3.4570 -0.2507 0
M  V30 62 Fe 3.7762 -1.2115 -0.5454 0
M  V30 63 Ag 4.2257 1.1016 -0.5540 0
M  V30 64 Ba 3.3966 3.1832 2.0307 0
M  V30 65 Ga 2.2686 3.4930 2.9243 0
M  V30 66 Ba 1.1390 3.8055 3.8149 0
M  V30 67 Ba -3.6819 4.6712 0.7100 0
M  V30 68 Ga -2.9867 4.2630 1.9504 0
M  V30 69 Ba -2.2811 3.8559 3.1853 0
M  V30 70 Ba -1.1691 1.4103 -6.1918 0
M  V30 71 Ga -0.0783 0.7825 -5.4150 0
M  V30 72 Ba 0.9878 0.1599 -4.6009 0
M  V30 73 Ba -1.5650 5.2670 -0.3907 0
M  V30 74 Ga -0.8718 4.9436 0.8651 0
M  V30 75 Ba -0.1969 4.6101 2.1283 0
M  V30 76 Ba 2.7375 3.0950 -0.6077 0
M  V30 77 Ga 1.9201 2.4138 -1.6421 0
M  V30 78 Ba 1.1303 1.6546 -2.6434 0
M  V30 79 Ba 1.5922 -4.3662 -1.4552 0
M  V30 80 Ga 1.2866 -3.0942 -2.1852 0
M  V30 81 Ba 0.9619 -1.8695 -2.9842 0
M  V30 82 Ba 1.3406 -1.5718 1.1547 0
M  V30 83 Ga 0.9354 -0.8008 -0.0105 0
M  V30 84 Ba 0.5545 -0.0534 -1.1991 0
M  V30 85 Ba -1.8105 -4.1468 0.0528 0
M  V30 86 Ga -0.4424 -3.9636 0.6317 0
M  V30 87 Ba 0.8960 -3.9087 1.2996 0
M  V30 88 Ba 3.6908 -1.8186 1.8736 0
M  V30 89 Ga 4.0736 -0.3928 1.7199 0
M  V30 90 Ba 4.4677 1.0303 1.5711 0
M  V30 91 Ba 2.1265 -4.6655 1.9875 0
M  V30 92 Ga 1.6014 -3.7347 3.0341 0
M  V30 93 Ba 1.1357 -2.9142 4.1937 0
M  V30 94 Ba -0.2692 -0.0863 5.7889 0
M  V30 95 Ga -0.5499 1.3124 5.3909 0
M  V30 96 Ba -0.8343 2.7127 5.0012 0
M  V30 97 Ba -2.6264 5.0450 -2.6481 0
M  V30 98 Ga -2.5238 4.2450 -3.9109 0
M  V30 99 Ba -2.3686 3.5372 -5.2225 0
M  V30 END ATOM
M  V30 BEGIN BOND
M  V30 1 1 1 2
M  V30 2 1 1 3
M  V30 3 1 1 4
M  V30 4 1 1 5
M  V30 5 1 6 7
M  V30 6 1 6 8
M  V30 7 1 6 9
M  V30 8 1 6 10
M  V30 9 1 11 12
M  V30 10 1 11 13
M  V30 11 1 11 14
M  V30 12 1 11 15
M  V30 13 1 16 17
M  V30 14 1 16 18
M  V30 15 1 16 19
M  V30 16 1 16 20
M  V30 17 1 21 22
M  V30 18 1 21 23
M  V30 19 1 21 24
M  V30 20 1 21 25
M  V30 21 1 26 27
M  V30 22 1 26 28
M  V30 23 1 26 29
M  V30 24 1 26 30
M  V30 25 1 31 32
M  V30 26 1 31 33
M  V30 27 1 31 34
M  V30 28 1 31 35
M  V30 29 1 36 37
M  V30 30 1 36 38
M  V30 31 1 36 39
M  V30 32 1 36 40
M  V30 33 1 41 42
M  V30 34 1 41 43
M  V30 35 1 41 44
M  V30 36 1 41 45
M  V30 37 1 46 47
M  V30 38 1 47 48
M  V30 39 1 49 50
M  V30 40 1 50 51
M  V30 41 1 52 53
M  V30 42 1 53 54
M  V30 43 1 55 56
M  V30 44 1 56 57
M  V30 45 1 58 59
M  V30 46 1 59 60
M  V30 47 1 61 62
M  V30 48 1 62 63
M  V30 49 1 64 65
M  V30 50 1 65 66
M  V30 51 1 67 68
M  V30 52 1 68 69
M  V30 53 1 70 71
M  V30 54 1 71 72
M  V30 55 1 73 74
M  V30 56 1 74 75
M  V30 57 1 76 77
M  V30 58 1 77 78
M  V30 59 1 79 80
M  V30 60 1 80 81
M  V30 61 1 82 83
M  V30 62 1 83 84
M  V30 63 1 85 86
M  V30 64 1 86 87
M  V30 65 1 88 89
M  V30 66 1 89 90
M  V30 67 1 91 92
M  V30 68 1 92 93
M  V30 69 1 94 95
M  V30 70 1 95 96
M  V30 71 1 97 98
M  V30 72 1 98 99
M  V30 73 1 2 67
M  V30 74 1 3 73
M  V30 75 1 4 49
M  V30 76 1 5 97
M  V30 77 1 7 58
M  V30 78 1 8 61
M  V30 79 1 9 91
M  V30 80 1 10 79
M  V30 81 1 12 46
M  V30 82 1 13 85
M  V30 83 1 14 60
M  V30 84 1 15 55
M  V30 85 1 17 52
M  V30 86 1 18 87
M  V30 87 1 19 82
M  V30 88 1 20 88
M  V30 89 1 22 76
M  V30 90 1 23 63
M  V30 91 1 24 64
M  V30 92 1 25 90
M  V30 93 1 27 54
M  V30 94 1 28 48
M  V30 95 1 29 93
M  V30 96 1 30 94
M  V30 97 1 32 51
M  V30 98 1 33 70
M  V30 99 1 34 57
M  V30 100 1 35 99
M  V30 101 1 37 81
M  V30 102 1 38 84
M  V30 103 1 39 78
M  V30 104 1 40 72
M  V30 105 1 42 96
M  V30 106 1 43 66
M  V30 107 1 44 69
M  V30 108 1 45 75
M  V30 END BOND
M  V30 END CTAB
M  END

$$$$
