
     RDKit          3D

  0  0  0  0  0  0  0  0  0  0999 V3000
M  V30 BEGIN CTAB
M  V30 COUNTS 99 108 0 0 0
M  V30 BEGIN ATOM
M  V30 1 Pd -6.3249 3.5966 -5.3819 0
M  V30 2 Pb -5.4858 3.0638 -5.4911 0
M  V30 3 Pb -6.2188 3.5766 -4.3743 0
M  V30 4 Pb -6.6576 3.2606 -6.2632 0
M  V30 5 Pb -7.1587 4.1366 -5.2792 0
M  V30 6 Pd 3.8650 -5.3077 0.8802 0
M  V30 7 Pb 4.0183 -5.3018 -0.1069 0
M  V30 8 Pb 3.7025 -5.2844 1.8689 0
M  V30 9 Pb 4.5849 -4.6159 0.9417 0
M  V30 10 Pb 3.0694 -5.9009 0.7579 0
M  V30 11 Pd -8.6041 0.0058 -2.7191 0
M  V30 12 Pb -9.3927 0.6172 -2.6770 0
M  V30 13 Pb -7.8213 -0.6160 -2.7487 0
M  V30 14 Pb -9.0024 -0.4420 -3.5198 0
M  V30 15 Pb -8.0444 0.7037 -2.2430 0
M  V30 16 Pd 0.3910 0.6026 6.0821 0
M  V30 17 Pb 0.4638 1.6022 6.1877 0
M  V30 18 Pb -0.3303 0.7341 5.3962 0
M  V30 19 Pb 0.2806 -0.3765 5.9412 0
M  V30 20 Pb 1.0872 0.3695 6.7702 0
M  V30 21 Pd 2.3646 3.9819 2.9846 0
M  V30 22 Pb 1.6654 4.0748 2.2767 0
M  V30 23 Pb 3.0842 3.9097 3.6622 0
M  V30 24 Pb 1.7731 4.3323 3.7087 0
M  V30 25 Pb 2.9263 3.3990 2.3907 0
M  V30 26 Pd 4.5800 -1.9094 5.3099 0
M  V30 27 Pb 4.2046 -1.9155 6.2360 0
M  V30 28 Pb 4.1845 -2.8003 5.0765 0
M  V30 29 Pb 4.7915 -1.6868 4.3551 0
M  V30 30 Pb 4.9829 -1.0379 5.5559 0
M  V30 31 Pd -2.8730 -3.5897 1.0558 0
M  V30 32 Pb -2.3675 -3.7296 1.9021 0
M  V30 33 Pb -3.0626 -2.6589 1.3766 0
M  V30 34 Pb -2.5456 -4.4845 0.7583 0
M  V30 35 Pb -3.3697 -3.4362 0.2013 0
M  V30 36 Pd 1.3687 2.7711 -4.3693 0
M  V30 37 Pb 0.9127 3.1644 -3.5714 0
M  V30 38 Pb 1.8470 2.3326 -5.1298 0
M  V30 39 Pb 0.4891 2.4467 -4.7178 0
M  V30 40 Pb 2.2568 3.0716 -4.0184 0
M  V30 41 Pd 5.4127 -0.1136 -3.7981 0
M  V30 42 Pb 5.4202 0.8642 -3.5934 0
M  V30 43 Pb 4.9866 0.0985 -4.6779 0
M  V30 44 Pb 5.7880 -0.3460 -2.8987 0
M  V30 45 Pb 5.3222 -1.0949 -3.9543 0
M  V30 46 Ag 1.1832 4.1461 1.7077 0
M  V30 47 Fe 0.8179 3.8168 -0.6151 0
M  V30 48 Ag 0.5936 3.4287 -2.9468 0
M  V30 49 Ag -7.8363 4.3875 -5.1093 0
M  V30 50 Fe -9.4408 3.1978 -3.8712 0
M  V30 51 Ag -9.8700 1.1820 -2.7418 0
M  V30 52 Ag 0.1578 -1.0946 5.7856 0
M  V30 53 Fe -0.8718 -2.5528 4.2287 0
M  V30 54 Ag -1.9778 -3.7852 2.5350 0
M  V30 55 Ag -4.8547 2.6688 -5.5809 0
M  V30 56 Fe -2.5110 2.4365 -5.2741 0
M  V30 57 Ag -0.1678 2.1910 -4.9743 0
M  V30 58 Ag -0.8833 0.7483 4.8832 0
M  V30 59 Fe -2.0621 -0.5183 3.2491 0
M  V30 60 Ag -3.0959 -1.9646 1.6669 0
M  V30 61 Ag 3.3352 2.8452 2.0799 0
M  V30 62 Fe 4.1981 0.7073 2.6800 0
M  V30 63 Ag 4.8645 -1.3470 3.6854 0
M  V30 64 Ag 2.4198 -6.2551 0.6364 0
M  V30 65 Fe 0.0774 -5.8776 0.5650 0
M  V30 66 Ag -2.1691 -5.1123 0.6036 0
M  V30 67 Ag -7.0373 2.7919 -6.7086 0
M  V30 68 Fe -8.2816 0.9250 -5.9309 0
M  V30 69 Ag -9.1350 -0.5227 -4.2534 0
M  V30 70 Ag 4.1568 -5.2269 -0.8389 0
M  V30 71 Fe 4.6939 -3.6448 -2.5233 0
M  V30 72 Ag 5.2201 -1.8354 -3.9648 0
M  V30 73 Ag 5.0705 -4.0466 0.8821 0
M  V30 74 Fe 5.6615 -2.2684 -0.5800 0
M  V30 75 Ag 6.0230 -0.5960 -2.2296 0
M  V30 76 Ag -7.2392 -1.0890 -2.7606 0
M  V30 77 Fe -5.4866 -2.2041 -1.6088 0
M  V30 78 Ag -3.7400 -3.3094 -0.4387 0
M  V30 79 Ag 3.6242 3.7626 4.1453 0
M  V30 80 Fe 4.6300 1.8548 5.1002 0
M  V30 81 Ag 5.2103 -0.3501 5.7046 0
M  V30 82 Ba 3.5561 -5.2793 2.6068 0
M  V30 83 Ga 3.7405 -4.3579 3.7475 0
M  V30 84 Ba 3.8976 -3.4790 4.9254 0
M  V30 85 Ba -6.2305 3.4365 -3.6194 0
M  V30 86 Ga -6.9024 2.3733 -2.7980 0
M  V30 87 Ba -7.5962 1.2880 -2.0254 0
M  V30 88 Ba 2.2457 1.9810 -5.6584 0
M  V30 89 Ga 3.4409 1.1248 -5.5410 0
M  V30 90 Ba 4.6314 0.2848 -5.3119 0
M  V30 91 Ba 2.9395 3.2623 -3.7702 0
M  V30 92 Ga 4.1736 2.4740 -3.5918 0
M  V30 93 Ba 5.3506 1.5962 -3.4504 0
M  V30 94 Ba 1.5673 0.0653 7.2712 0
M  V30 95 Ga 2.7314 -0.8445 7.1380 0
M  V30 96 Ba 3.8881 -1.7409 6.8953 0
M  V30 97 Ba 0.4506 2.3599 6.2131 0
M  V30 98 Ga 0.8943 3.4430 5.3028 0
M  V30 99 Ba 1.3793 4.4562 4.3355 0
M  V30 END ATOM
M  V30 BEGIN BOND
M  V30 1 1 1 2
M  V30 2 1 1 3
M  V30 3 1 1 4
M  V30 4 1 1 5
M  V30 5 1 6 7
M  V30 6 1 6 8
M  V30 7 1 6 9
M  V30 8 1 6 10
M  V30 9 1 11 12
M  V30 10 1 11 13
M  V30 11 1 11 14
M  V30 12 1 11 15
M  V30 13 1 16 17
M  V30 14 1 16 18
M  V30 15 1 16 19
M  V30 16 1 16 20
M  V30 17 1 21 22
M  V30 18 1 21 23
M  V30 19 1 21 24
M  V30 20 1 21 25
M  V30 21 1 26 27
M  V30 22 1 26 28
M  V30 23 1 26 29
M  V30 24 1 26 30
M  V30 25 1 31 32
M  V30 26 1 31 33
M  V30 27 1 31 34
M  V30 28 1 31 35
M  V30 29 1 36 37
M  V30 30 1 36 38
M  V30 31 1 36 39
M  V30 32 1 36 40
M  V30 33 1 41 42
M  V30 34 1 41 43
M  V30 35 1 41 44
M  V30 36 1 41 45
M  V30 37 1 46 47
M  V30 38 1 47 48
M  V30 39 1 49 50
M  V30 40 1 50 51
M  V30 41 1 52 53
M  V30 42 1 53 54
M  V30 43 1 55 56
M  V30 44 1 56 57
M  V30 45 1 58 59
M  V30 46 1 59 60
M  V30 47 1 61 62
M  V30 48 1 62 63
M  V30 49 1 64 65
M  V30 50 1 65 66
M  V30 51 1 67 68
M  V30 52 1 68 69
M  V30 53 1 70 71
M  V30 54 1 71 72
M  V30 55 1 73 74
M  V30 56 1 74 75
M  V30 57 1 76 77
M  V30 58 1 77 78
M  V30 59 1 79 80
M  V30 60 1 80 81
M  V30 61 1 82 83
M  V30 62 1 83 84
M  V30 63 1 85 86
M  V30 64 1 86 87
M  V30 65 1 88 89
M  V30 66 1 89 90
M  V30 67 1 91 92
M  V30 68 1 92 93
M  V30 69 1 94 95
M  V30 70 1 95 96
M  V30 71 1 97 98
M  V30 72 1 98 99
M  V30 73 1 2 55
M  V30 74 1 3 85
M  V30 75 1 4 67
M  V30 76 1 5 49
M  V30 77 1 7 70
M  V30 78 1 8 82
M  V30 79 1 9 73
M  V30 80 1 10 64
M  V30 81 1 12 51
M  V30 82 1 13 76
M  V30 83 1 14 69
M  V30 84 1 15 87
M  V30 85 1 17 97
M  V30 86 1 18 58
M  V30 87 1 19 52
M  V30 88 1 20 94
M  V30 89 1 22 46
M  V30 90 1 23 79
M  V30 91 1 24 99
M  V30 92 1 25 61
M  V30 93 1 27 96
M  V30 94 1 28 84
M  V30 95 1 29 63
M  V30 96 1 30 81
M  V30 97 1 32 54
M  V30 98 1 33 60
M  V30 99 1 34 66
M  V30 100 1 35 78
M  V30 101 1 37 48
M  V30 102 1 38 88
M  V30 103 1 39 57
M  V30 104 1 40 91
M  V30 105 1 42 93
M  V30 106 1 43 90
M  V30 107 1 44 75
M  V30 108 1 45 72
M  V30 END BOND
M  V30 END CTAB
M  END

$$$$
