
     RDKit          3D

  0  0  0  0  0  0  0  0  0  0999 V3000
M  V30 BEGIN CTAB
M  V30 COUNTS 99 108 0 0 0
M  V30 BEGIN ATOM
M  V30 1 Pd -1.3251 3.1731 -2.7087 0
M  V30 2 Pb -0.6950 3.9114 -2.9357 0
M  V30 3 Pb -1.4554 3.6456 -1.8375 0
M  V30 4 Pb -1.0905 2.6314 -3.5206 0
M  V30 5 Pb -2.0345 2.5089 -2.4864 0
M  V30 6 Pd 2.0995 -2.6891 0.5856 0
M  V30 7 Pb 2.0046 -2.2369 1.4702 0
M  V30 8 Pb 3.0301 -2.3250 0.5404 0
M  V30 9 Pb 1.2681 -3.2263 0.7431 0
M  V30 10 Pb 2.1491 -3.0165 -0.3596 0
M  V30 11 Pd 5.3770 6.3565 -1.6455 0
M  V30 12 Pb 6.2531 5.9446 -1.4060 0
M  V30 13 Pb 5.2649 6.7409 -0.7286 0
M  V30 14 Pb 5.4151 5.9142 -2.5360 0
M  V30 15 Pb 4.4765 6.6724 -1.9246 0
M  V30 16 Pd 2.9346 -0.0857 -4.1493 0
M  V30 17 Pb 3.8854 -0.2631 -3.8851 0
M  V30 18 Pb 3.2600 0.7923 -4.4905 0
M  V30 19 Pb 2.0034 0.1406 -4.4582 0
M  V30 20 Pb 2.6609 -0.9988 -3.8292 0
M  V30 21 Pd -3.5723 -3.5334 0.1740 0
M  V30 22 Pb -3.6874 -3.0777 1.0597 0
M  V30 23 Pb -2.7696 -4.0018 0.5344 0
M  V30 24 Pb -3.9376 -2.7188 -0.2652 0
M  V30 25 Pb -3.6883 -4.4566 0.5487 0
M  V30 26 Pd -7.7662 -2.1473 3.0554 0
M  V30 27 Pb -6.8113 -1.8979 3.2100 0
M  V30 28 Pb -8.6756 -2.5236 2.8767 0
M  V30 29 Pb -7.5998 -2.2003 2.0671 0
M  V30 30 Pb -7.8983 -2.3479 4.0282 0
M  V30 31 Pd 6.5696 1.3040 -0.1323 0
M  V30 32 Pb 7.0388 2.1395 -0.4253 0
M  V30 33 Pb 6.5770 1.6744 0.7989 0
M  V30 34 Pb 6.5766 0.9043 -1.0515 0
M  V30 35 Pb 6.1888 0.4353 0.1798 0
M  V30 36 Pd -7.7723 -6.4522 1.4588 0
M  V30 37 Pb -7.9048 -6.9341 2.3273 0
M  V30 38 Pb -8.6806 -6.0480 1.5696 0
M  V30 39 Pb -6.8182 -6.7447 1.4124 0
M  V30 40 Pb -7.6049 -5.7680 0.7439 0
M  V30 41 Pd 3.2434 4.2784 2.8530 0
M  V30 42 Pb 4.1680 3.9480 3.0392 0
M  V30 43 Pb 2.8942 3.3878 3.1473 0
M  V30 44 Pb 2.3139 4.5608 2.6095 0
M  V30 45 Pb 3.6138 5.1681 2.5743 0
M  V30 46 Ag 5.3428 5.5396 -3.1759 0
M  V30 47 Fe 4.4906 3.5168 -4.0688 0
M  V30 48 Ag 3.5723 1.4310 -4.7186 0
M  V30 49 Ag -0.2815 4.5280 -3.0239 0
M  V30 50 Fe 1.7273 5.7289 -2.6469 0
M  V30 51 Ag 3.7987 6.7943 -2.2076 0
M  V30 52 Ag 1.9453 -1.8007 2.0752 0
M  V30 53 Fe 2.2722 0.4320 2.8142 0
M  V30 54 Ag 2.6607 2.7086 3.3663 0
M  V30 55 Ag -7.9950 -2.7715 4.6354 0
M  V30 56 Fe -8.0900 -5.1273 4.4897 0
M  V30 57 Ag -8.0011 -7.0086 3.0640 0
M  V30 58 Ag -1.4379 3.9900 -1.1715 0
M  V30 59 Fe -0.0031 4.4258 0.6714 0
M  V30 60 Ag 1.6147 4.7219 2.3861 0
M  V30 61 Ag -2.5943 2.0368 -2.3381 0
M  V30 62 Fe -3.4128 -0.0143 -1.4768 0
M  V30 63 Ag -4.1522 -2.0863 -0.5947 0
M  V30 64 Ba 5.1427 7.0028 -0.0357 0
M  V30 65 Ga 4.5281 6.4200 1.1753 0
M  V30 66 Ba 3.9121 5.8331 2.3837 0
M  V30 67 Ba 2.1486 -3.2087 -1.0866 0
M  V30 68 Ga 2.3277 -2.4495 -2.3448 0
M  V30 69 Ba 2.5025 -1.7051 -3.6124 0
M  V30 70 Ba 3.7612 -2.1683 0.6115 0
M  V30 71 Ga 4.8026 -1.1352 0.4606 0
M  V30 72 Ba 5.9836 -0.2548 0.3848 0
M  V30 73 Ba 0.7286 -3.7215 0.9190 0
M  V30 74 Ga -0.7210 -3.9796 0.8329 0
M  V30 75 Ba -2.1534 -4.3313 0.7982 0
M  V30 76 Ba -7.4871 -2.3811 1.3426 0
M  V30 77 Ga -7.4726 -3.7387 0.7430 0
M  V30 78 Ba -7.4911 -5.1588 0.3124 0
M  V30 79 Ba -3.7705 -5.1672 0.7842 0
M  V30 80 Ga -4.9153 -6.0460 1.0975 0
M  V30 81 Ba -6.0841 -6.8947 1.4045 0
M  V30 82 Ba -3.7676 -2.6925 1.7016 0
M  V30 83 Ga -4.9100 -2.2273 2.5136 0
M  V30 84 Ba -6.0767 -1.7810 3.3011 0
M  V30 85 Ba 6.6093 1.9692 1.4902 0
M  V30 86 Ga 5.7350 2.8150 2.3266 0
M  V30 87 Ba 4.8507 3.6604 3.1531 0
M  V30 88 Ba -9.3057 -2.8961 2.7115 0
M  V30 89 Ga -9.4111 -4.2746 2.1957 0
M  V30 90 Ba -9.3096 -5.6563 1.6877 0
M  V30 91 Ba 4.6204 -0.3418 -3.7413 0
M  V30 92 Ga 5.5810 0.1083 -2.7108 0
M  V30 93 Ba 6.5800 0.5345 -1.7070 0
M  V30 94 Ba 6.8901 5.5769 -1.2717 0
M  V30 95 Ga 7.1638 4.1694 -0.9245 0
M  V30 96 Ba 7.4344 2.7606 -0.5802 0
M  V30 97 Ba -0.9127 2.1698 -4.0900 0
M  V30 98 Ga 0.2196 1.2631 -4.3973 0
M  V30 99 Ba 1.3311 0.3437 -4.7403 0
M  V30 END ATOM
M  V30 BEGIN BOND
M  V30 1 1 1 2
M  V30 2 1 1 3
M  V30 3 1 1 4
M  V30 4 1 1 5
M  V30 5 1 6 7
M  V30 6 1 6 8
M  V30 7 1 6 9
M  V30 8 1 6 10
M  V30 9 1 11 12
M  V30 10 1 11 13
M  V30 11 1 11 14
M  V30 12 1 11 15
M  V30 13 1 16 17
M  V30 14 1 16 18
M  V30 15 1 16 19
M  V30 16 1 16 20
M  V30 17 1 21 22
M  V30 18 1 21 23
M  V30 19 1 21 24
M  V30 20 1 21 25
M  V30 21 1 26 27
M  V30 22 1 26 28
M  V30 23 1 26 29
M  V30 24 1 26 30
M  V30 25 1 31 32
M  V30 26 1 31 33
M  V30 27 1 31 34
M  V30 28 1 31 35
M  V30 29 1 36 37
M  V30 30 1 36 38
M  V30 31 1 36 39
M  V30 32 1 36 40
M  V30 33 1 41 42
M  V30 34 1 41 43
M  V30 35 1 41 44
M  V30 36 1 41 45
M  V30 37 1 46 47
M  V30 38 1 47 48
M  V30 39 1 49 50
M  V30 40 1 50 51
M  V30 41 1 52 53
M  V30 42 1 53 54
M  V30 43 1 55 56
M  V30 44 1 56 57
M  V30 45 1 58 59
M  V30 46 1 59 60
M  V30 47 1 61 62
M  V30 48 1 62 63
M  V30 49 1 64 65
M  V30 50 1 65 66
M  V30 51 1 67 68
M  V30 52 1 68 69
M  V30 53 1 70 71
M  V30 54 1 71 72
M  V30 55 1 73 74
M  V30 56 1 74 75
M  V30 57 1 76 77
M  V30 58 1 77 78
M  V30 59 1 79 80
M  V30 60 1 80 81
M  V30 61 1 82 83
M  V30 62 1 83 84
M  V30 63 1 85 86
M  V30 64 1 86 87
M  V30 65 1 88 89
M  V30 66 1 89 90
M  V30 67 1 91 92
M  V30 68 1 92 93
M  V30 69 1 94 95
M  V30 70 1 95 96
M  V30 71 1 97 98
M  V30 72 1 98 99
M  V30 73 1 2 49
M  V30 74 1 3 58
M  V30 75 1 4 97
M  V30 76 1 5 61
M  V30 77 1 7 52
M  V30 78 1 8 70
M  V30 79 1 9 73
M  V30 80 1 10 67
M  V30 81 1 12 94
M  V30 82 1 13 64
M  V30 83 1 14 46
M  V30 84 1 15 51
M  V30 85 1 17 91
M  V30 86 1 18 48
M  V30 87 1 19 99
M  V30 88 1 20 69
M  V30 89 1 22 82
M  V30 90 1 23 75
M  V30 91 1 24 63
M  V30 92 1 25 79
M  V30 93 1 27 84
M  V30 94 1 28 88
M  V30 95 1 29 76
M  V30 96 1 30 55
M  V30 97 1 32 96
M  V30 98 1 33 85
M  V30 99 1 34 93
M  V30 100 1 35 72
M  V30 101 1 37 57
M  V30 102 1 38 90
M  V30 103 1 39 81
M  V30 104 1 40 78
M  V30 105 1 42 87
M  V30 106 1 43 54
M  V30 107 1 44 60
M  V30 108 1 45 66
M  V30 END BOND
M  V30 END CTAB
M  END

$$$$
