
     RDKit          3D

  0  0  0  0  0  0  0  0  0  0999 V3000
M  V30 BEGIN CTAB
M  V30 COUNTS 99 108 0 0 0
M  V30 BEGIN ATOM
M  V30 1 Pd -3.1335 -0.1724 -5.6291 0
M  V30 2 Pb -3.5887 0.5650 -5.1260 0
M  V30 3 Pb -2.6997 -0.9143 -6.1447 0
M  V30 4 Pb -4.0178 -0.4918 -5.9699 0
M  V30 5 Pb -2.2462 0.1131 -5.2634 0
M  V30 6 Pd -4.5616 -4.9444 -5.6925 0
M  V30 7 Pb -5.2514 -5.1745 -4.9892 0
M  V30 8 Pb -5.1338 -4.1990 -6.0327 0
M  V30 9 Pb -3.8286 -4.6233 -6.2902 0
M  V30 10 Pb -3.9639 -5.6411 -5.3043 0
M  V30 11 Pd -0.5714 0.6435 4.2402 0
M  V30 12 Pb -0.7632 1.6056 4.4459 0
M  V30 13 Pb -0.2800 -0.2933 4.0361 0
M  V30 14 Pb 0.2718 0.7300 4.7631 0
M  V30 15 Pb -1.4623 0.5159 3.7904 0
M  V30 16 Pd 6.7690 2.5586 4.6201 0
M  V30 17 Pb 7.1907 1.6608 4.4614 0
M  V30 18 Pb 6.3045 3.4407 4.7336 0
M  V30 19 Pb 7.4529 2.9547 4.0130 0
M  V30 20 Pb 6.0586 2.1482 5.1815 0
M  V30 21 Pd -4.2900 1.3060 -0.3663 0
M  V30 22 Pb -3.4670 1.8659 -0.3539 0
M  V30 23 Pb -5.1389 0.7779 -0.3926 0
M  V30 24 Pb -4.1159 0.9754 0.5666 0
M  V30 25 Pb -4.4645 1.6326 -1.2969 0
M  V30 26 Pd -5.2784 -3.8206 -0.3004 0
M  V30 27 Pb -5.7835 -4.3568 -0.9929 0
M  V30 28 Pb -4.7077 -3.2187 0.2557 0
M  V30 29 Pb -4.6007 -4.5505 -0.2621 0
M  V30 30 Pb -5.9417 -3.0784 -0.3610 0
M  V30 31 Pd 2.1107 4.8159 2.6816 0
M  V30 32 Pb 1.4201 4.6088 1.9951 0
M  V30 33 Pb 2.7660 4.8225 1.9287 0
M  V30 34 Pb 1.4018 4.7530 3.3886 0
M  V30 35 Pb 2.8309 5.0375 3.3469 0
M  V30 36 Pd 1.7482 -1.0688 0.1315 0
M  V30 37 Pb 2.6917 -1.3070 -0.1184 0
M  V30 38 Pb 1.7843 -1.5711 0.9928 0
M  V30 39 Pb 1.6275 -0.5863 -0.7369 0
M  V30 40 Pb 0.8001 -0.8917 0.3926 0
M  V30 41 Pd 7.2514 0.6315 0.2685 0
M  V30 42 Pb 7.8410 1.3709 0.5903 0
M  V30 43 Pb 7.6101 0.0613 1.0053 0
M  V30 44 Pb 6.8060 1.3033 -0.3138 0
M  V30 45 Pb 6.6469 -0.1049 -0.0469 0
M  V30 46 Ag 0.8915 0.7624 5.1774 0
M  V30 47 Fe 3.1873 1.2947 5.4201 0
M  V30 48 Ag 5.4829 1.8638 5.5572 0
M  V30 49 Ag -3.5672 -6.0718 -4.8485 0
M  V30 50 Fe -3.4810 -5.9908 -2.4947 0
M  V30 51 Ag -4.1216 -5.0983 -0.4093 0
M  V30 52 Ag 3.1961 4.7515 1.3202 0
M  V30 53 Fe 4.8170 3.4266 0.2076 0
M  V30 54 Ag 6.4429 1.8941 -0.5839 0
M  V30 55 Ag -1.5824 0.3071 -4.9700 0
M  V30 56 Fe -0.0119 0.0664 -3.2032 0
M  V30 57 Ag 1.4928 -0.2419 -1.3902 0
M  V30 58 Ag -4.2653 -2.7087 0.5804 0
M  V30 59 Fe -2.1019 -1.7336 0.6611 0
M  V30 60 Ag 0.0988 -0.8424 0.6528 0
M  V30 61 Ag -2.8723 2.3149 -0.3829 0
M  V30 62 Fe -0.9770 3.3630 0.5796 0
M  V30 63 Ag 0.9363 4.4600 1.4477 0
M  V30 64 Ba 3.3816 -1.5257 -0.3316 0
M  V30 65 Ga 4.7839 -1.0550 -0.2842 0
M  V30 66 Ba 6.2137 -0.6725 -0.2874 0
M  V30 67 Ba -2.4159 -1.4866 -6.5419 0
M  V30 68 Ga -2.8036 -2.9068 -6.6496 0
M  V30 69 Ba -3.2735 -4.3057 -6.6801 0
M  V30 70 Ba 7.9512 3.1799 3.5052 0
M  V30 71 Ga 8.1657 2.6141 2.1650 0
M  V30 72 Ba 8.2496 1.9361 0.8626 0
M  V30 73 Ba -4.6650 -0.7795 -6.2169 0
M  V30 74 Ga -5.1426 -2.1736 -6.2670 0
M  V30 75 Ba -5.5169 -3.5997 -6.2686 0
M  V30 76 Ba -5.7801 0.3895 -0.4184 0
M  V30 77 Ga -6.1190 -1.0440 -0.4107 0
M  V30 78 Ba -6.4003 -2.4898 -0.3994 0
M  V30 79 Ba -5.7527 -5.3360 -4.4384 0
M  V30 80 Ga -5.9260 -5.0284 -2.9899 0
M  V30 81 Ba -6.1397 -4.7469 -1.5416 0
M  V30 82 Ba -0.8231 2.3350 4.6231 0
M  V30 83 Ga -0.0165 3.5213 4.2584 0
M  V30 84 Ba 0.8211 4.6757 3.8628 0
M  V30 85 Ba -2.1590 0.3841 3.5287 0
M  V30 86 Ga -3.0361 0.5848 2.3520 0
M  V30 87 Ba -4.0365 0.7034 1.2660 0
M  V30 88 Ba -3.9470 1.1206 -4.7677 0
M  V30 89 Ga -4.2565 1.4875 -3.3705 0
M  V30 90 Ba -4.5899 1.8947 -1.9900 0
M  V30 91 Ba 7.4998 0.9932 4.2937 0
M  V30 92 Ga 7.7017 0.3039 3.0014 0
M  V30 93 Ba 7.8359 -0.2618 1.6424 0
M  V30 94 Ba 5.9232 4.0837 4.8295 0
M  V30 95 Ga 4.6507 4.6425 4.3174 0
M  V30 96 Ba 3.3833 5.2295 3.8248 0
M  V30 97 Ba 0.0423 -0.9618 3.9090 0
M  V30 98 Ga 0.8667 -1.4880 2.8023 0
M  V30 99 Ba 1.6709 -1.9243 1.6432 0
M  V30 END ATOM
M  V30 BEGIN BOND
M  V30 1 1 1 2
M  V30 2 1 1 3
M  V30 3 1 1 4
M  V30 4 1 1 5
M  V30 5 1 6 7
M  V30 6 1 6 8
M  V30 7 1 6 9
M  V30 8 1 6 10
M  V30 9 1 11 12
M  V30 10 1 11 13
M  V30 11 1 11 14
M  V30 12 1 11 15
M  V30 13 1 16 17
M  V30 14 1 16 18
M  V30 15 1 16 19
M  V30 16 1 16 20
M  V30 17 1 21 22
M  V30 18 1 21 23
M  V30 19 1 21 24
M  V30 20 1 21 25
M  V30 21 1 26 27
M  V30 22 1 26 28
M  V30 23 1 26 29
M  V30 24 1 26 30
M  V30 25 1 31 32
M  V30 26 1 31 33
M  V30 27 1 31 34
M  V30 28 1 31 35
M  V30 29 1 36 37
M  V30 30 1 36 38
M  V30 31 1 36 39
M  V30 32 1 36 40
M  V30 33 1 41 42
M  V30 34 1 41 43
M  V30 35 1 41 44
M  V30 36 1 41 45
M  V30 37 1 46 47
M  V30 38 1 47 48
M  V30 39 1 49 50
M  V30 40 1 50 51
M  V30 41 1 52 53
M  V30 42 1 53 54
M  V30 43 1 55 56
M  V30 44 1 56 57
M  V30 45 1 58 59
M  V30 46 1 59 60
M  V30 47 1 61 62
M  V30 48 1 62 63
M  V30 49 1 64 65
M  V30 50 1 65 66
M  V30 51 1 67 68
M  V30 52 1 68 69
M  V30 53 1 70 71
M  V30 54 1 71 72
M  V30 55 1 73 74
M  V30 56 1 74 75
M  V30 57 1 76 77
M  V30 58 1 77 78
M  V30 59 1 79 80
M  V30 60 1 80 81
M  V30 61 1 82 83
M  V30 62 1 83 84
M  V30 63 1 85 86
M  V30 64 1 86 87
M  V30 65 1 88 89
M  V30 66 1 89 90
M  V30 67 1 91 92
M  V30 68 1 92 93
M  V30 69 1 94 95
M  V30 70 1 95 96
M  V30 71 1 97 98
M  V30 72 1 98 99
M  V30 73 1 2 88
M  V30 74 1 3 67
M  V30 75 1 4 73
M  V30 76 1 5 55
M  V30 77 1 7 79
M  V30 78 1 8 75
M  V30 79 1 9 69
M  V30 80 1 10 49
M  V30 81 1 12 82
M  V30 82 1 13 97
M  V30 83 1 14 46
M  V30 84 1 15 85
M  V30 85 1 17 91
M  V30 86 1 18 94
M  V30 87 1 19 70
M  V30 88 1 20 48
M  V30 89 1 22 61
M  V30 90 1 23 76
M  V30 91 1 24 87
M  V30 92 1 25 90
M  V30 93 1 27 81
M  V30 94 1 28 58
M  V30 95 1 29 51
M  V30 96 1 30 78
M  V30 97 1 32 63
M  V30 98 1 33 52
M  V30 99 1 34 84
M  V30 100 1 35 96
M  V30 101 1 37 64
M  V30 102 1 38 99
M  V30 103 1 39 57
M  V30 104 1 40 60
M  V30 105 1 42 72
M  V30 106 1 43 93
M  V30 107 1 44 54
M  V30 108 1 45 66
M  V30 END BOND
M  V30 END CTAB
M  END

$$$$
