
     RDKit          3D

  0  0  0  0  0  0  0  0  0  0999 V3000
M  V30 BEGIN CTAB
M  V30 COUNTS 99 108 0 0 0
M  V30 BEGIN ATOM
M  V30 1 Pd 1.4337 -1.4763 -7.2556 0
M  V30 2 Pb 0.6809 -1.8854 -7.7745 0
M  V30 3 Pb 0.8788 -0.6922 -6.9788 0
M  V30 4 Pb 2.1301 -1.2285 -6.5809 0
M  V30 5 Pb 1.9798 -2.2831 -7.4599 0
M  V30 6 Pd -2.7017 -0.3088 7.6036 0
M  V30 7 Pb -2.0564 -0.4410 8.3504 0
M  V30 8 Pb -3.2542 -0.1114 6.7905 0
M  V30 9 Pb -2.8348 0.6351 7.8906 0
M  V30 10 Pb -2.4606 -1.2305 7.2615 0
M  V30 11 Pd 1.4775 -2.7788 4.7220 0
M  V30 12 Pb 1.8744 -2.5146 5.5965 0
M  V30 13 Pb 1.0815 -3.1032 3.8655 0
M  V30 14 Pb 0.6376 -3.0597 5.2113 0
M  V30 15 Pb 2.2336 -2.3657 4.2152 0
M  V30 16 Pd 2.2713 -5.7563 -2.4719 0
M  V30 17 Pb 1.7515 -5.4881 -1.6626 0
M  V30 18 Pb 2.8632 -4.9543 -2.3908 0
M  V30 19 Pb 2.7353 -5.9626 -3.3279 0
M  V30 20 Pb 1.5656 -6.4137 -2.7252 0
M  V30 21 Pd -1.9343 -4.1453 -4.8967 0
M  V30 22 Pb -1.9863 -3.9852 -3.9091 0
M  V30 23 Pb -1.5293 -5.0532 -4.7415 0
M  V30 24 Pb -1.8234 -4.1793 -5.8938 0
M  V30 25 Pb -2.4174 -3.2789 -5.0055 0
M  V30 26 Pd 3.2522 4.0215 1.9112 0
M  V30 27 Pb 3.4785 3.0464 1.9661 0
M  V30 28 Pb 3.0792 4.9981 1.8922 0
M  V30 29 Pb 3.0472 4.0522 2.8895 0
M  V30 30 Pb 3.3427 4.0196 0.8936 0
M  V30 31 Pd -1.3674 3.2007 4.5153 0
M  V30 32 Pb -2.2129 2.6902 4.3464 0
M  V30 33 Pb -1.6783 3.3381 5.4556 0
M  V30 34 Pb -1.0769 3.1150 3.5605 0
M  V30 35 Pb -0.4740 3.5955 4.7444 0
M  V30 36 Pd 0.3815 5.1532 -3.0219 0
M  V30 37 Pb 0.5049 6.0083 -2.5348 0
M  V30 38 Pb 0.2234 4.3395 -3.5847 0
M  V30 39 Pb 1.3033 4.8491 -2.7135 0
M  V30 40 Pb -0.5818 5.3782 -3.1345 0
M  V30 41 Pd -2.7799 1.9821 -1.1070 0
M  V30 42 Pb -3.2815 1.6237 -1.8898 0
M  V30 43 Pb -2.9732 2.9103 -1.4316 0
M  V30 44 Pb -2.5955 1.0294 -0.8539 0
M  V30 45 Pb -2.1521 2.3163 -0.3994 0
M  V30 46 Ag 2.6019 -1.1993 -5.9974 0
M  V30 47 Fe 3.1140 -2.5786 -4.1319 0
M  V30 48 Ag 3.2164 -4.3012 -2.4988 0
M  V30 49 Ag 0.4710 -0.1161 -6.7258 0
M  V30 50 Fe 0.3061 1.8312 -5.3738 0
M  V30 51 Ag 0.0233 3.7884 -4.0562 0
M  V30 52 Ag -1.4409 -0.5611 8.7453 0
M  V30 53 Fe 0.6087 -1.4213 7.9631 0
M  V30 54 Ag 2.0147 -2.3230 6.3000 0
M  V30 55 Ag 0.7864 -3.3817 3.2372 0
M  V30 56 Fe 1.0760 -4.3185 1.0763 0
M  V30 57 Ag 1.3307 -5.2588 -1.0875 0
M  V30 58 Ag -2.8122 -2.6438 -5.0151 0
M  V30 59 Fe -3.2837 -0.6289 -3.8569 0
M  V30 60 Ag -3.5527 1.3008 -2.5055 0
M  V30 61 Ag 2.3711 -2.9154 -7.4803 0
M  V30 62 Fe 2.8833 -4.6461 -5.9524 0
M  V30 63 Ag 3.0134 -5.9978 -4.0166 0
M  V30 64 Ag 2.8967 5.7029 1.7720 0
M  V30 65 Fe 1.7553 6.6957 -0.0247 0
M  V30 66 Ag 0.6494 6.5822 -2.0939 0
M  V30 67 Ag 2.7370 -1.9838 3.8111 0
M  V30 68 Fe 3.2560 0.1491 2.9001 0
M  V30 69 Ag 3.6749 2.3233 2.0360 0
M  V30 70 Ag -2.0106 -3.7511 -3.1946 0
M  V30 71 Fe -2.2375 -1.7978 -1.8567 0
M  V30 72 Ag -2.4869 0.2917 -0.7481 0
M  V30 73 Ba 1.0063 -6.8123 -3.0230 0
M  V30 74 Ga -0.1501 -6.3136 -3.7993 0
M  V30 75 Ba -1.2791 -5.7461 -4.5691 0
M  V30 76 Ba -2.8655 1.3663 8.0318 0
M  V30 77 Ga -2.4249 2.4518 7.1426 0
M  V30 78 Ba -1.9463 3.4266 6.1502 0
M  V30 79 Ba -2.2507 -1.9239 7.0237 0
M  V30 80 Ga -1.1163 -2.5525 6.2875 0
M  V30 81 Ba -0.0145 -3.2451 5.5595 0
M  V30 82 Ba -0.8217 3.1005 2.8538 0
M  V30 83 Ga -1.2877 2.8020 1.4832 0
M  V30 84 Ba -1.6019 2.5441 0.0622 0
M  V30 85 Ba 0.1297 -2.2991 -8.0780 0
M  V30 86 Ga -0.8292 -3.2111 -7.4117 0
M  V30 87 Ba -1.7381 -4.0894 -6.6384 0
M  V30 88 Ba 3.4174 4.0256 0.1257 0
M  V30 89 Ga 2.6513 4.3347 -1.1272 0
M  V30 90 Ba 1.9837 4.6136 -2.4420 0
M  V30 91 Ba -3.6148 0.1042 6.1655 0
M  V30 92 Ga -3.2735 1.1656 5.1928 0
M  V30 93 Ba -2.8228 2.2524 4.2957 0
M  V30 94 Ba 2.8311 4.1308 3.6040 0
M  V30 95 Ga 1.5257 3.9791 4.2808 0
M  V30 96 Ba 0.2147 3.8257 4.9461 0
M  V30 97 Ba -1.3209 5.4734 -3.0991 0
M  V30 98 Ga -2.2782 4.5694 -2.4368 0
M  V30 99 Ba -3.1213 3.5798 -1.7414 0
M  V30 END ATOM
M  V30 BEGIN BOND
M  V30 1 1 1 2
M  V30 2 1 1 3
M  V30 3 1 1 4
M  V30 4 1 1 5
M  V30 5 1 6 7
M  V30 6 1 6 8
M  V30 7 1 6 9
M  V30 8 1 6 10
M  V30 9 1 11 12
M  V30 10 1 11 13
M  V30 11 1 11 14
M  V30 12 1 11 15
M  V30 13 1 16 17
M  V30 14 1 16 18
M  V30 15 1 16 19
M  V30 16 1 16 20
M  V30 17 1 21 22
M  V30 18 1 21 23
M  V30 19 1 21 24
M  V30 20 1 21 25
M  V30 21 1 26 27
M  V30 22 1 26 28
M  V30 23 1 26 29
M  V30 24 1 26 30
M  V30 25 1 31 32
M  V30 26 1 31 33
M  V30 27 1 31 34
M  V30 28 1 31 35
M  V30 29 1 36 37
M  V30 30 1 36 38
M  V30 31 1 36 39
M  V30 32 1 36 40
M  V30 33 1 41 42
M  V30 34 1 41 43
M  V30 35 1 41 44
M  V30 36 1 41 45
M  V30 37 1 46 47
M  V30 38 1 47 48
M  V30 39 1 49 50
M  V30 40 1 50 51
M  V30 41 1 52 53
M  V30 42 1 53 54
M  V30 43 1 55 56
M  V30 44 1 56 57
M  V30 45 1 58 59
M  V30 46 1 59 60
M  V30 47 1 61 62
M  V30 48 1 62 63
M  V30 49 1 64 65
M  V30 50 1 65 66
M  V30 51 1 67 68
M  V30 52 1 68 69
M  V30 53 1 70 71
M  V30 54 1 71 72
M  V30 55 1 73 74
M  V30 56 1 74 75
M  V30 57 1 76 77
M  V30 58 1 77 78
M  V30 59 1 79 80
M  V30 60 1 80 81
M  V30 61 1 82 83
M  V30 62 1 83 84
M  V30 63 1 85 86
M  V30 64 1 86 87
M  V30 65 1 88 89
M  V30 66 1 89 90
M  V30 67 1 91 92
M  V30 68 1 92 93
M  V30 69 1 94 95
M  V30 70 1 95 96
M  V30 71 1 97 98
M  V30 72 1 98 99
M  V30 73 1 2 85
M  V30 74 1 3 49
M  V30 75 1 4 46
M  V30 76 1 5 61
M  V30 77 1 7 52
M  V30 78 1 8 91
M  V30 79 1 9 76
M  V30 80 1 10 79
M  V30 81 1 12 54
M  V30 82 1 13 55
M  V30 83 1 14 81
M  V30 84 1 15 67
M  V30 85 1 17 57
M  V30 86 1 18 48
M  V30 87 1 19 63
M  V30 88 1 20 73
M  V30 89 1 22 70
M  V30 90 1 23 75
M  V30 91 1 24 87
M  V30 92 1 25 58
M  V30 93 1 27 69
M  V30 94 1 28 64
M  V30 95 1 29 94
M  V30 96 1 30 88
M  V30 97 1 32 93
M  V30 98 1 33 78
M  V30 99 1 34 82
M  V30 100 1 35 96
M  V30 101 1 37 66
M  V30 102 1 38 51
M  V30 103 1 39 90
M  V30 104 1 40 97
M  V30 105 1 42 60
M  V30 106 1 43 99
M  V30 107 1 44 72
M  V30 108 1 45 84
M  V30 END BOND
M  V30 END CTAB
M  END

$$$$
