
     RDKit          3D

  0  0  0  0  0  0  0  0  0  0999 V3000
M  V30 BEGIN CTAB
M  V30 COUNTS 99 108 0 0 0
M  V30 BEGIN ATOM
M  V30 1 Pd 2.6983 -5.1417 0.9595 0
M  V30 2 Pb 2.9401 -4.8982 0.0212 0
M  V30 3 Pb 2.1866 -5.9376 0.6229 0
M  V30 4 Pb 3.2682 -4.4015 1.3271 0
M  V30 5 Pb 2.3889 -5.3180 1.8925 0
M  V30 6 Pd -3.9076 -1.2360 -2.4192 0
M  V30 7 Pb -3.5301 -0.3110 -2.4560 0
M  V30 8 Pb -3.3685 -1.4814 -3.2197 0
M  V30 9 Pb -4.4128 -1.0333 -1.5806 0
M  V30 10 Pb -4.2244 -2.1963 -2.3697 0
M  V30 11 Pd -0.6548 6.2549 -3.3464 0
M  V30 12 Pb -0.7267 5.4376 -3.9225 0
M  V30 13 Pb -1.6176 6.2269 -3.0756 0
M  V30 14 Pb -0.5042 6.9673 -2.6669 0
M  V30 15 Pb 0.3242 6.2353 -3.5319 0
M  V30 16 Pd 1.3381 4.7917 3.1248 0
M  V30 17 Pb 1.2038 5.6768 2.6838 0
M  V30 18 Pb 1.4641 3.8769 3.5176 0
M  V30 19 Pb 0.4117 4.8820 3.4936 0
M  V30 20 Pb 2.2249 4.7071 2.6743 0
M  V30 21 Pd -2.7222 3.6010 0.5940 0
M  V30 22 Pb -2.6197 3.0696 -0.2482 0
M  V30 23 Pb -3.1369 4.3106 0.0211 0
M  V30 24 Pb -2.7752 4.1434 1.4322 0
M  V30 25 Pb -2.3069 2.9055 1.1814 0
M  V30 26 Pd 4.3699 0.6003 1.6081 0
M  V30 27 Pb 3.7199 0.7512 2.3591 0
M  V30 28 Pb 5.0198 0.4730 0.8554 0
M  V30 29 Pb 4.4230 -0.3793 1.8192 0
M  V30 30 Pb 4.3943 1.5865 1.4510 0
M  V30 31 Pd 3.8999 0.7568 -3.6697 0
M  V30 32 Pb 3.7600 -0.2323 -3.6427 0
M  V30 33 Pb 4.7194 0.6249 -3.1119 0
M  V30 34 Pb 4.0423 1.7431 -3.6993 0
M  V30 35 Pb 3.0368 0.9265 -4.1538 0
M  V30 36 Pd -3.0580 -2.9415 4.5442 0
M  V30 37 Pb -2.5571 -2.0788 4.5352 0
M  V30 38 Pb -3.4841 -3.8273 4.3797 0
M  V30 39 Pb -3.8065 -2.4708 4.0805 0
M  V30 40 Pb -2.2555 -3.4280 4.8835 0
M  V30 41 Pd -2.1414 -6.6655 -1.3738 0
M  V30 42 Pb -1.7174 -6.4291 -2.2433 0
M  V30 43 Pb -1.3120 -7.1414 -1.0807 0
M  V30 44 Pb -2.5838 -6.8593 -0.4987 0
M  V30 45 Pb -2.9470 -6.1137 -1.6412 0
M  V30 46 Ag 3.0716 -4.6789 -0.6830 0
M  V30 47 Fe 3.3916 -2.8631 -2.1785 0
M  V30 48 Ag 3.7016 -0.9773 -3.5872 0
M  V30 49 Ag -2.0135 2.4562 1.7070 0
M  V30 50 Fe -2.0688 0.5163 3.0761 0
M  V30 51 Ag -2.1771 -1.4467 4.4085 0
M  V30 52 Ag 1.0567 6.1312 -3.6298 0
M  V30 53 Fe 2.6946 4.4201 -3.7133 0
M  V30 54 Ag 4.0671 2.4879 -3.7459 0
M  V30 55 Ag -2.9374 -1.8112 -3.7261 0
M  V30 56 Fe -1.9653 -3.9603 -3.7332 0
M  V30 57 Ag -1.4936 -6.1052 -2.8725 0
M  V30 58 Ag -0.6627 4.7845 -4.2923 0
M  V30 59 Fe 0.7738 2.8965 -4.4842 0
M  V30 60 Ag 2.3862 1.1458 -4.4666 0
M  V30 61 Ag -0.3420 7.3892 -2.0742 0
M  V30 62 Fe 0.3697 7.0623 0.1624 0
M  V30 63 Ag 1.0664 6.3008 2.2960 0
M  V30 64 Ag -4.7603 -0.9430 -0.9226 0
M  V30 65 Fe -4.6574 -1.4551 1.3930 0
M  V30 66 Ag -4.2961 -2.1074 3.6465 0
M  V30 67 Ag 2.1116 -5.3687 2.5859 0
M  V30 68 Fe 0.2986 -4.6726 3.9487 0
M  V30 69 Ag -1.6365 -3.8224 5.0261 0
M  V30 70 Ag -3.7050 -4.4976 4.1366 0
M  V30 71 Fe -3.4224 -5.8612 2.2163 0
M  V30 72 Ag -2.9311 -6.9385 0.1605 0
M  V30 73 Ba -3.1974 0.3585 -2.5144 0
M  V30 74 Ga -2.8982 1.5306 -1.6691 0
M  V30 75 Ba -2.5401 2.7536 -0.9251 0
M  V30 76 Ba -0.3048 4.9963 3.6898 0
M  V30 77 Ga -1.5567 4.7636 2.9417 0
M  V30 78 Ba -2.7375 4.4816 2.1009 0
M  V30 79 Ba 1.5756 3.1800 3.7823 0
M  V30 80 Ga 2.4047 2.0302 3.3535 0
M  V30 81 Ba 3.2348 0.8821 2.9223 0
M  V30 82 Ba -4.4719 -2.9169 -2.3464 0
M  V30 83 Ga -3.9630 -4.2919 -2.0787 0
M  V30 84 Ba -3.5622 -5.7062 -1.8321 0
M  V30 85 Ba 2.8653 4.6364 2.2936 0
M  V30 86 Ga 3.6605 3.4865 1.8293 0
M  V30 87 Ba 4.4478 2.3292 1.3698 0
M  V30 88 Ba 3.7311 -3.9133 1.6669 0
M  V30 89 Ga 4.0651 -2.4766 1.7774 0
M  V30 90 Ba 4.5394 -1.0964 2.0186 0
M  V30 91 Ba 1.8491 -6.5687 0.3848 0
M  V30 92 Ga 0.5766 -6.9968 -0.2336 0
M  V30 93 Ba -0.6791 -7.4727 -0.8515 0
M  V30 94 Ba 5.5096 0.3942 0.2894 0
M  V30 95 Ga 5.4224 0.4513 -1.1840 0
M  V30 96 Ba 5.3041 0.5136 -2.6550 0
M  V30 97 Ba -2.3160 6.2156 -2.7998 0
M  V30 98 Ga -2.9051 5.5231 -1.6354 0
M  V30 99 Ba -3.4379 4.8045 -0.4597 0
M  V30 END ATOM
M  V30 BEGIN BOND
M  V30 1 1 1 2
M  V30 2 1 1 3
M  V30 3 1 1 4
M  V30 4 1 1 5
M  V30 5 1 6 7
M  V30 6 1 6 8
M  V30 7 1 6 9
M  V30 8 1 6 10
M  V30 9 1 11 12
M  V30 10 1 11 13
M  V30 11 1 11 14
M  V30 12 1 11 15
M  V30 13 1 16 17
M  V30 14 1 16 18
M  V30 15 1 16 19
M  V30 16 1 16 20
M  V30 17 1 21 22
M  V30 18 1 21 23
M  V30 19 1 21 24
M  V30 20 1 21 25
M  V30 21 1 26 27
M  V30 22 1 26 28
M  V30 23 1 26 29
M  V30 24 1 26 30
M  V30 25 1 31 32
M  V30 26 1 31 33
M  V30 27 1 31 34
M  V30 28 1 31 35
M  V30 29 1 36 37
M  V30 30 1 36 38
M  V30 31 1 36 39
M  V30 32 1 36 40
M  V30 33 1 41 42
M  V30 34 1 41 43
M  V30 35 1 41 44
M  V30 36 1 41 45
M  V30 37 1 46 47
M  V30 38 1 47 48
M  V30 39 1 49 50
M  V30 40 1 50 51
M  V30 41 1 52 53
M  V30 42 1 53 54
M  V30 43 1 55 56
M  V30 44 1 56 57
M  V30 45 1 58 59
M  V30 46 1 59 60
M  V30 47 1 61 62
M  V30 48 1 62 63
M  V30 49 1 64 65
M  V30 50 1 65 66
M  V30 51 1 67 68
M  V30 52 1 68 69
M  V30 53 1 70 71
M  V30 54 1 71 72
M  V30 55 1 73 74
M  V30 56 1 74 75
M  V30 57 1 76 77
M  V30 58 1 77 78
M  V30 59 1 79 80
M  V30 60 1 80 81
M  V30 61 1 82 83
M  V30 62 1 83 84
M  V30 63 1 85 86
M  V30 64 1 86 87
M  V30 65 1 88 89
M  V30 66 1 89 90
M  V30 67 1 91 92
M  V30 68 1 92 93
M  V30 69 1 94 95
M  V30 70 1 95 96
M  V30 71 1 97 98
M  V30 72 1 98 99
M  V30 73 1 2 46
M  V30 74 1 3 91
M  V30 75 1 4 88
M  V30 76 1 5 67
M  V30 77 1 7 73
M  V30 78 1 8 55
M  V30 79 1 9 64
M  V30 80 1 10 82
M  V30 81 1 12 58
M  V30 82 1 13 97
M  V30 83 1 14 61
M  V30 84 1 15 52
M  V30 85 1 17 63
M  V30 86 1 18 79
M  V30 87 1 19 76
M  V30 88 1 20 85
M  V30 89 1 22 75
M  V30 90 1 23 99
M  V30 91 1 24 78
M  V30 92 1 25 49
M  V30 93 1 27 81
M  V30 94 1 28 94
M  V30 95 1 29 90
M  V30 96 1 30 87
M  V30 97 1 32 48
M  V30 98 1 33 96
M  V30 99 1 34 54
M  V30 100 1 35 60
M  V30 101 1 37 51
M  V30 102 1 38 70
M  V30 103 1 39 66
M  V30 104 1 40 69
M  V30 105 1 42 57
M  V30 106 1 43 93
M  V30 107 1 44 72
M  V30 108 1 45 84
M  V30 END BOND
M  V30 END CTAB
M  END

$$$$
