
     RDKit          3D

  0  0  0  0  0  0  0  0  0  0999 V3000
M  V30 BEGIN CTAB
M  V30 COUNTS 99 108 0 0 0
M  V30 BEGIN ATOM
M  V30 1 Pd 1.0811 -3.6412 5.9571 0
M  V30 2 Pb 1.1529 -3.4250 4.9810 0
M  V30 3 Pb 0.9388 -3.7672 6.9392 0
M  V30 4 Pb 1.9278 -3.1537 6.1752 0
M  V30 5 Pb 0.2212 -4.0941 5.7275 0
M  V30 6 Pd 0.9399 0.2292 8.5888 0
M  V30 7 Pb -0.0249 0.4672 8.6887 0
M  V30 8 Pb 1.8620 -0.0681 8.3509 0
M  V30 9 Pb 0.8120 -0.6396 9.0671 0
M  V30 10 Pb 1.0278 1.0390 8.0096 0
M  V30 11 Pd 4.0147 -1.9990 -2.4636 0
M  V30 12 Pb 4.6251 -1.3539 -2.9098 0
M  V30 13 Pb 3.3202 -2.5699 -2.0241 0
M  V30 14 Pb 3.8205 -2.4106 -3.3549 0
M  V30 15 Pb 4.1983 -1.5107 -1.6111 0
M  V30 16 Pd 0.5496 -1.1056 -6.8576 0
M  V30 17 Pb -0.2559 -0.6696 -7.2491 0
M  V30 18 Pb 1.0874 -0.3804 -7.2901 0
M  V30 19 Pb -0.0586 -1.7074 -6.3369 0
M  V30 20 Pb 1.3510 -1.6156 -6.5314 0
M  V30 21 Pd 1.1452 1.5456 0.0775 0
M  V30 22 Pb 1.3406 2.4459 -0.3230 0
M  V30 23 Pb 0.1700 1.7578 -0.0044 0
M  V30 24 Pb 2.1137 1.3218 0.1782 0
M  V30 25 Pb 0.9779 0.6313 0.4538 0
M  V30 26 Pd -3.2994 2.2359 3.3407 0
M  V30 27 Pb -3.5011 2.0742 4.3071 0
M  V30 28 Pb -4.1064 1.7217 3.0550 0
M  V30 29 Pb -2.4575 2.6778 3.6487 0
M  V30 30 Pb -3.0604 2.3577 2.3767 0
M  V30 31 Pd 1.4996 3.7507 -4.9768 0
M  V30 32 Pb 1.5335 4.0939 -4.0340 0
M  V30 33 Pb 0.5256 3.9890 -5.0181 0
M  V30 34 Pb 2.4610 3.5011 -4.9177 0
M  V30 35 Pb 1.5177 3.3433 -5.8958 0
M  V30 36 Pd -3.0824 -2.0233 0.6760 0
M  V30 37 Pb -2.8602 -1.1829 0.1820 0
M  V30 38 Pb -2.2423 -2.4690 0.3571 0
M  V30 39 Pb -3.2305 -2.7976 1.2881 0
M  V30 40 Pb -3.9111 -1.5779 1.0153 0
M  V30 41 Pd -2.8763 0.9716 -4.2763 0
M  V30 42 Pb -2.8039 -0.0282 -4.2582 0
M  V30 43 Pb -3.0117 0.9260 -5.2592 0
M  V30 44 Pb -2.8176 1.9659 -4.3574 0
M  V30 45 Pb -2.7085 1.0268 -3.2947 0
M  V30 46 Ag 1.0045 1.6027 7.5165 0
M  V30 47 Fe -0.3002 2.4169 5.7079 0
M  V30 48 Ag -1.8271 2.9317 3.9643 0
M  V30 49 Ag -0.4189 -4.3722 5.4576 0
M  V30 50 Fe -1.9632 -4.0150 3.6927 0
M  V30 51 Ag -3.2422 -3.3253 1.8177 0
M  V30 52 Ag -0.7475 0.6523 8.6242 0
M  V30 53 Fe -2.2994 1.3128 6.9532 0
M  V30 54 Ag -3.5604 1.9483 5.0443 0
M  V30 55 Ag 4.9668 -0.7812 -3.2359 0
M  V30 56 Fe 4.3127 1.3100 -4.1254 0
M  V30 57 Ag 3.1536 3.2331 -4.8686 0
M  V30 58 Ag 1.1108 -3.2550 4.2488 0
M  V30 59 Fe 1.0319 -1.6492 2.4960 0
M  V30 60 Ag 0.9477 -0.0743 0.7156 0
M  V30 61 Ag 2.7596 -2.9565 -1.7076 0
M  V30 62 Fe 0.5724 -2.8988 -0.7776 0
M  V30 63 Ag -1.6157 -2.8317 0.1497 0
M  V30 64 Ba 3.6980 -2.6781 -4.0458 0
M  V30 65 Ga 2.7918 -2.3457 -5.1662 0
M  V30 66 Ba 1.9200 -2.0676 -6.3278 0
M  V30 67 Ba -2.6767 -0.5108 -0.0964 0
M  V30 68 Ga -2.6410 0.2442 -1.3612 0
M  V30 69 Ba -2.5629 1.0913 -2.5644 0
M  V30 70 Ba 0.8324 -3.7670 7.6819 0
M  V30 71 Ga 0.7673 -2.6032 8.5862 0
M  V30 72 Ba 0.7305 -1.3343 9.3380 0
M  V30 73 Ba -0.2032 4.1797 -4.9966 0
M  V30 74 Ga -1.4675 3.4597 -4.7373 0
M  V30 75 Ba -2.7063 2.6979 -4.4754 0
M  V30 76 Ba -0.5627 -2.0675 -5.9104 0
M  V30 77 Ga -1.6447 -1.4889 -5.0840 0
M  V30 78 Ba -2.6771 -0.7688 -4.3070 0
M  V30 79 Ba 2.5310 -2.7609 6.3889 0
M  V30 80 Ga 2.6105 -1.5591 7.2382 0
M  V30 81 Ba 2.4984 -0.3666 8.0966 0
M  V30 82 Ba -0.5500 1.9574 -0.0846 0
M  V30 83 Ga -1.7133 2.1808 0.7967 0
M  V30 84 Ba -2.8985 2.4140 1.6458 0
M  V30 85 Ba -4.6710 1.2902 2.8196 0
M  V30 86 Ga -4.6457 0.0340 2.0491 0
M  V30 87 Ba -4.5130 -1.2146 1.2770 0
M  V30 88 Ba 1.4588 3.1290 -0.6210 0
M  V30 89 Ga 1.5195 3.7176 -1.9785 0
M  V30 90 Ba 1.5860 4.3365 -3.3221 0
M  V30 91 Ba 4.3502 -1.0748 -1.0201 0
M  V30 92 Ga 3.6040 0.0058 -0.3491 0
M  V30 93 Ba 2.8136 1.0765 0.2863 0
M  V30 94 Ba -0.8724 -0.3587 -7.5312 0
M  V30 95 Ga -2.0024 0.2762 -6.8488 0
M  V30 96 Ba -3.0351 0.8735 -5.9994 0
M  V30 97 Ba 1.3850 0.2394 -7.5958 0
M  V30 98 Ga 1.5178 1.6260 -7.0903 0
M  V30 99 Ba 1.6366 3.0053 -6.5618 0
M  V30 END ATOM
M  V30 BEGIN BOND
M  V30 1 1 1 2
M  V30 2 1 1 3
M  V30 3 1 1 4
M  V30 4 1 1 5
M  V30 5 1 6 7
M  V30 6 1 6 8
M  V30 7 1 6 9
M  V30 8 1 6 10
M  V30 9 1 11 12
M  V30 10 1 11 13
M  V30 11 1 11 14
M  V30 12 1 11 15
M  V30 13 1 16 17
M  V30 14 1 16 18
M  V30 15 1 16 19
M  V30 16 1 16 20
M  V30 17 1 21 22
M  V30 18 1 21 23
M  V30 19 1 21 24
M  V30 20 1 21 25
M  V30 21 1 26 27
M  V30 22 1 26 28
M  V30 23 1 26 29
M  V30 24 1 26 30
M  V30 25 1 31 32
M  V30 26 1 31 33
M  V30 27 1 31 34
M  V30 28 1 31 35
M  V30 29 1 36 37
M  V30 30 1 36 38
M  V30 31 1 36 39
M  V30 32 1 36 40
M  V30 33 1 41 42
M  V30 34 1 41 43
M  V30 35 1 41 44
M  V30 36 1 41 45
M  V30 37 1 46 47
M  V30 38 1 47 48
M  V30 39 1 49 50
M  V30 40 1 50 51
M  V30 41 1 52 53
M  V30 42 1 53 54
M  V30 43 1 55 56
M  V30 44 1 56 57
M  V30 45 1 58 59
M  V30 46 1 59 60
M  V30 47 1 61 62
M  V30 48 1 62 63
M  V30 49 1 64 65
M  V30 50 1 65 66
M  V30 51 1 67 68
M  V30 52 1 68 69
M  V30 53 1 70 71
M  V30 54 1 71 72
M  V30 55 1 73 74
M  V30 56 1 74 75
M  V30 57 1 76 77
M  V30 58 1 77 78
M  V30 59 1 79 80
M  V30 60 1 80 81
M  V30 61 1 82 83
M  V30 62 1 83 84
M  V30 63 1 85 86
M  V30 64 1 86 87
M  V30 65 1 88 89
M  V30 66 1 89 90
M  V30 67 1 91 92
M  V30 68 1 92 93
M  V30 69 1 94 95
M  V30 70 1 95 96
M  V30 71 1 97 98
M  V30 72 1 98 99
M  V30 73 1 2 58
M  V30 74 1 3 70
M  V30 75 1 4 79
M  V30 76 1 5 49
M  V30 77 1 7 52
M  V30 78 1 8 81
M  V30 79 1 9 72
M  V30 80 1 10 46
M  V30 81 1 12 55
M  V30 82 1 13 61
M  V30 83 1 14 64
M  V30 84 1 15 91
M  V30 85 1 17 94
M  V30 86 1 18 97
M  V30 87 1 19 76
M  V30 88 1 20 66
M  V30 89 1 22 88
M  V30 90 1 23 82
M  V30 91 1 24 93
M  V30 92 1 25 60
M  V30 93 1 27 54
M  V30 94 1 28 85
M  V30 95 1 29 48
M  V30 96 1 30 84
M  V30 97 1 32 90
M  V30 98 1 33 73
M  V30 99 1 34 57
M  V30 100 1 35 99
M  V30 101 1 37 67
M  V30 102 1 38 63
M  V30 103 1 39 51
M  V30 104 1 40 87
M  V30 105 1 42 78
M  V30 106 1 43 96
M  V30 107 1 44 75
M  V30 108 1 45 69
M  V30 END BOND
M  V30 END CTAB
M  END

$$$$
