
     RDKit          3D

  0  0  0  0  0  0  0  0  0  0999 V3000
M  V30 BEGIN CTAB
M  V30 COUNTS 99 108 0 0 0
M  V30 BEGIN ATOM
M  V30 1 Pd 1.7846 6.2426 0.7394 0
M  V30 2 Pb 2.5475 6.3688 0.1056 0
M  V30 3 Pb 1.0570 6.0624 1.4349 0
M  V30 4 Pb 2.4843 6.0051 1.3972 0
M  V30 5 Pb 1.0987 6.6159 0.1051 0
M  V30 6 Pd -4.1090 -3.4926 3.4764 0
M  V30 7 Pb -4.2388 -4.3988 3.0774 0
M  V30 8 Pb -3.4327 -3.8628 4.1190 0
M  V30 9 Pb -4.0114 -2.5571 3.8257 0
M  V30 10 Pb -4.7736 -3.1661 2.8065 0
M  V30 11 Pd 4.1453 -2.3758 -1.0206 0
M  V30 12 Pb 4.1906 -2.2693 -2.0014 0
M  V30 13 Pb 4.1553 -2.5489 -0.0268 0
M  V30 14 Pb 4.5075 -1.4211 -0.8920 0
M  V30 15 Pb 3.7935 -3.2836 -1.2495 0
M  V30 16 Pd 4.9608 3.3596 -3.0200 0
M  V30 17 Pb 4.9790 2.6900 -3.7462 0
M  V30 18 Pb 4.9438 4.1143 -2.3612 0
M  V30 19 Pb 5.1329 2.6268 -2.3191 0
M  V30 20 Pb 4.6761 4.0353 -3.6931 0
M  V30 21 Pd -5.0405 -0.7942 -3.5828 0
M  V30 22 Pb -4.5327 -0.3487 -4.3208 0
M  V30 23 Pb -4.8336 -1.7088 -3.9381 0
M  V30 24 Pb -5.2029 0.1191 -3.2119 0
M  V30 25 Pb -5.5208 -1.1841 -2.7993 0
M  V30 26 Pd -1.5166 -7.3519 -2.0867 0
M  V30 27 Pb -2.0467 -6.9026 -2.8082 0
M  V30 28 Pb -0.9760 -7.6988 -1.3272 0
M  V30 29 Pb -2.3376 -7.4943 -1.5403 0
M  V30 30 Pb -0.6389 -7.1364 -2.5059 0
M  V30 31 Pd -0.2026 2.9881 5.3888 0
M  V30 32 Pb 0.0348 2.1774 5.9124 0
M  V30 33 Pb -0.3699 3.7746 4.7594 0
M  V30 34 Pb 0.7059 3.3250 5.5915 0
M  V30 35 Pb -1.1001 2.5846 5.2054 0
M  V30 36 Pd -1.6076 5.5962 -3.8895 0
M  V30 37 Pb -0.7683 5.8448 -4.3662 0
M  V30 38 Pb -1.3944 6.2705 -3.1809 0
M  V30 39 Pb -2.4327 5.3028 -3.4108 0
M  V30 40 Pb -1.7923 4.8673 -4.5509 0
M  V30 41 Pd 1.4491 -4.2126 3.9474 0
M  V30 42 Pb 2.2914 -3.8909 3.4976 0
M  V30 43 Pb 0.6000 -4.4949 4.4014 0
M  V30 44 Pb 1.4655 -3.4456 4.5826 0
M  V30 45 Pb 1.4258 -5.0338 3.3824 0
M  V30 46 Ag 2.9379 5.8434 1.9547 0
M  V30 47 Fe 2.6491 4.7547 4.0150 0
M  V30 48 Ag 1.3977 3.5755 5.6133 0
M  V30 49 Ag -4.3615 -5.0376 2.7066 0
M  V30 50 Fe -3.7253 -6.3871 0.8624 0
M  V30 51 Ag -2.8815 -7.5399 -1.0310 0
M  V30 52 Ag -4.1491 0.0720 -4.8100 0
M  V30 53 Fe -3.0193 2.1514 -5.0276 0
M  V30 54 Ag -1.9543 4.2754 -4.9848 0
M  V30 55 Ag -4.6591 -2.3978 -4.1863 0
M  V30 56 Fe -3.5721 -4.4763 -3.7962 0
M  V30 57 Ag -2.4542 -6.5177 -3.3092 0
M  V30 58 Ag -5.2649 0.8192 -2.9535 0
M  V30 59 Fe -4.2533 2.9656 -2.9421 0
M  V30 60 Ag -3.0413 4.9994 -3.0995 0
M  V30 61 Ag -0.5376 -7.8553 -0.7463 0
M  V30 62 Fe 0.4647 -6.8522 1.1525 0
M  V30 63 Ag 1.3751 -5.6700 2.9939 0
M  V30 64 Ag 3.5393 -3.9080 -1.5816 0
M  V30 65 Fe 1.8284 -5.4534 -2.1518 0
M  V30 66 Ag 0.0721 -6.9679 -2.6638 0
M  V30 67 Ag 4.3477 4.5232 -4.1498 0
M  V30 68 Fe 2.1823 5.3842 -4.5729 0
M  V30 69 Ag -0.1063 5.9851 -4.6805 0
M  V30 70 Ag 4.2558 -2.1272 -2.7197 0
M  V30 71 Fe 4.6228 -0.1727 -3.9646 0
M  V30 72 Ag 4.9562 2.1346 -4.2269 0
M  V30 73 Ag -3.9885 -1.8331 4.0335 0
M  V30 74 Fe -2.8613 0.1916 4.5669 0
M  V30 75 Ag -1.7520 2.2246 5.1064 0
M  V30 76 Ag -5.2593 -2.9732 2.2704 0
M  V30 77 Fe -5.6079 -2.2026 0.0529 0
M  V30 78 Ag -5.8568 -1.4254 -2.1756 0
M  V30 79 Ag 0.2725 1.5449 6.2231 0
M  V30 80 Fe 0.8625 -0.6969 5.7339 0
M  V30 81 Ag 1.4220 -2.9106 5.1014 0
M  V30 82 Ba 0.5800 6.9775 -0.3094 0
M  V30 83 Ga -0.3007 6.8215 -1.4882 0
M  V30 84 Ba -1.2186 6.7699 -2.6480 0
M  V30 85 Ba 0.4944 5.9590 1.9534 0
M  V30 86 Ga 0.0639 5.1114 3.1146 0
M  V30 87 Ba -0.5099 4.3643 4.2829 0
M  V30 88 Ba 4.2403 -2.6786 0.7156 0
M  V30 89 Ga 3.5192 -3.1673 1.9177 0
M  V30 90 Ba 2.9386 -3.6300 3.2033 0
M  V30 91 Ba 4.8138 -0.7147 -0.7767 0
M  V30 92 Ga 4.9807 0.6679 -1.3556 0
M  V30 93 Ba 5.2550 2.0928 -1.7665 0
M  V30 94 Ba -2.9415 -4.1914 4.5869 0
M  V30 95 Ga -1.4803 -4.4150 4.6569 0
M  V30 96 Ba -0.0277 -4.6699 4.7800 0
M  V30 97 Ba 3.1971 6.4277 -0.2665 0
M  V30 98 Ga 4.0336 5.5670 -1.1294 0
M  V30 99 Ba 4.9320 4.7702 -1.9911 0
M  V30 END ATOM
M  V30 BEGIN BOND
M  V30 1 1 1 2
M  V30 2 1 1 3
M  V30 3 1 1 4
M  V30 4 1 1 5
M  V30 5 1 6 7
M  V30 6 1 6 8
M  V30 7 1 6 9
M  V30 8 1 6 10
M  V30 9 1 11 12
M  V30 10 1 11 13
M  V30 11 1 11 14
M  V30 12 1 11 15
M  V30 13 1 16 17
M  V30 14 1 16 18
M  V30 15 1 16 19
M  V30 16 1 16 20
M  V30 17 1 21 22
M  V30 18 1 21 23
M  V30 19 1 21 24
M  V30 20 1 21 25
M  V30 21 1 26 27
M  V30 22 1 26 28
M  V30 23 1 26 29
M  V30 24 1 26 30
M  V30 25 1 31 32
M  V30 26 1 31 33
M  V30 27 1 31 34
M  V30 28 1 31 35
M  V30 29 1 36 37
M  V30 30 1 36 38
M  V30 31 1 36 39
M  V30 32 1 36 40
M  V30 33 1 41 42
M  V30 34 1 41 43
M  V30 35 1 41 44
M  V30 36 1 41 45
M  V30 37 1 46 47
M  V30 38 1 47 48
M  V30 39 1 49 50
M  V30 40 1 50 51
M  V30 41 1 52 53
M  V30 42 1 53 54
M  V30 43 1 55 56
M  V30 44 1 56 57
M  V30 45 1 58 59
M  V30 46 1 59 60
M  V30 47 1 61 62
M  V30 48 1 62 63
M  V30 49 1 64 65
M  V30 50 1 65 66
M  V30 51 1 67 68
M  V30 52 1 68 69
M  V30 53 1 70 71
M  V30 54 1 71 72
M  V30 55 1 73 74
M  V30 56 1 74 75
M  V30 57 1 76 77
M  V30 58 1 77 78
M  V30 59 1 79 80
M  V30 60 1 80 81
M  V30 61 1 82 83
M  V30 62 1 83 84
M  V30 63 1 85 86
M  V30 64 1 86 87
M  V30 65 1 88 89
M  V30 66 1 89 90
M  V30 67 1 91 92
M  V30 68 1 92 93
M  V30 69 1 94 95
M  V30 70 1 95 96
M  V30 71 1 97 98
M  V30 72 1 98 99
M  V30 73 1 2 97
M  V30 74 1 3 85
M  V30 75 1 4 46
M  V30 76 1 5 82
M  V30 77 1 7 49
M  V30 78 1 8 94
M  V30 79 1 9 73
M  V30 80 1 10 76
M  V30 81 1 12 70
M  V30 82 1 13 88
M  V30 83 1 14 91
M  V30 84 1 15 64
M  V30 85 1 17 72
M  V30 86 1 18 99
M  V30 87 1 19 93
M  V30 88 1 20 67
M  V30 89 1 22 52
M  V30 90 1 23 55
M  V30 91 1 24 58
M  V30 92 1 25 78
M  V30 93 1 27 57
M  V30 94 1 28 61
M  V30 95 1 29 51
M  V30 96 1 30 66
M  V30 97 1 32 79
M  V30 98 1 33 87
M  V30 99 1 34 48
M  V30 100 1 35 75
M  V30 101 1 37 69
M  V30 102 1 38 84
M  V30 103 1 39 60
M  V30 104 1 40 54
M  V30 105 1 42 90
M  V30 106 1 43 96
M  V30 107 1 44 81
M  V30 108 1 45 63
M  V30 END BOND
M  V30 END CTAB
M  END

$$$$
