
     RDKit          3D

  0  0  0  0  0  0  0  0  0  0999 V3000
M  V30 BEGIN CTAB
M  V30 COUNTS 99 108 0 0 0
M  V30 BEGIN ATOM
M  V30 1 Pd 6.7398 -0.0455 1.0756 0
M  V30 2 Pb 6.3744 0.7892 1.4902 0
M  V30 3 Pb 7.0444 -0.9383 0.7078 0
M  V30 4 Pb 7.3515 -0.1812 1.8505 0
M  V30 5 Pb 6.1303 0.0538 0.2901 0
M  V30 6 Pd 6.1992 -5.5629 2.1704 0
M  V30 7 Pb 5.6872 -6.0053 2.9028 0
M  V30 8 Pb 6.9250 -5.3176 2.8073 0
M  V30 9 Pb 6.6495 -4.9877 1.4720 0
M  V30 10 Pb 5.4253 -5.7370 1.5601 0
M  V30 11 Pd -4.1208 1.0960 2.5589 0
M  V30 12 Pb -3.7063 1.9742 2.7773 0
M  V30 13 Pb -4.4714 0.2560 2.1505 0
M  V30 14 Pb -5.0029 1.5660 2.4945 0
M  V30 15 Pb -3.2351 0.6256 2.5786 0
M  V30 16 Pd -6.8776 3.1051 -1.5339 0
M  V30 17 Pb -7.1018 2.1354 -1.4881 0
M  V30 18 Pb -6.6007 4.0620 -1.6387 0
M  V30 19 Pb -6.7149 2.9990 -2.5224 0
M  V30 20 Pb -7.0177 3.1799 -0.5461 0
M  V30 21 Pd 1.8016 1.1371 2.6274 0
M  V30 22 Pb 1.7132 1.5222 1.7084 0
M  V30 23 Pb 1.9009 0.7051 3.5246 0
M  V30 24 Pb 0.9447 0.6265 2.5326 0
M  V30 25 Pb 2.6741 1.6224 2.7183 0
M  V30 26 Pd 1.8545 -3.7329 3.1670 0
M  V30 27 Pb 2.2839 -4.4661 3.6969 0
M  V30 28 Pb 1.4221 -2.9955 2.6453 0
M  V30 29 Pb 1.9656 -4.3005 2.3513 0
M  V30 30 Pb 1.8390 -3.1242 3.9605 0
M  V30 31 Pd -2.1438 5.0365 -2.6559 0
M  V30 32 Pb -1.2707 4.5710 -2.5260 0
M  V30 33 Pb -2.1137 4.8003 -3.6319 0
M  V30 34 Pb -2.1483 5.2287 -1.6761 0
M  V30 35 Pb -3.0466 5.4688 -2.7126 0
M  V30 36 Pd -0.0919 -1.7301 -1.9729 0
M  V30 37 Pb -0.2285 -1.8316 -2.9587 0
M  V30 38 Pb -1.0149 -2.0546 -1.7618 0
M  V30 39 Pb 0.8160 -1.3500 -2.1441 0
M  V30 40 Pb 0.0363 -1.5613 -0.9945 0
M  V30 41 Pd -3.3836 0.6571 -5.4494 0
M  V30 42 Pb -4.1905 1.2481 -5.3253 0
M  V30 43 Pb -3.9178 -0.1077 -5.0998 0
M  V30 44 Pb -2.8750 1.4727 -5.7320 0
M  V30 45 Pb -2.5974 0.0489 -5.5634 0
M  V30 46 Ag 7.7729 -0.4525 2.3985 0
M  V30 47 Fe 7.9667 -2.6624 3.1976 0
M  V30 48 Ag 7.4215 -4.9561 3.2238 0
M  V30 49 Ag 5.6785 0.0856 -0.3068 0
M  V30 50 Fe 3.5932 -0.4592 -1.3022 0
M  V30 51 Ag 1.4885 -1.0337 -2.2382 0
M  V30 52 Ag -3.4057 2.6554 2.7637 0
M  V30 53 Fe -2.7084 4.1557 1.0674 0
M  V30 54 Ag -2.1536 5.3019 -0.9316 0
M  V30 55 Ag 1.6774 1.8026 1.0131 0
M  V30 56 Fe 0.5460 2.9991 -0.6973 0
M  V30 57 Ag -0.6386 4.2048 -2.3646 0
M  V30 58 Ag -7.1481 1.4006 -1.5873 0
M  V30 59 Fe -5.9639 -0.0175 -3.0556 0
M  V30 60 Ag -4.3879 -0.5482 -4.7300 0
M  V30 61 Ag -4.5747 -0.3533 1.7297 0
M  V30 62 Fe -3.3120 -1.4761 0.0627 0
M  V30 63 Ag -1.7006 -2.2273 -1.5104 0
M  V30 64 Ba -5.6408 1.9603 2.4415 0
M  V30 65 Ga -6.3905 2.5750 1.3274 0
M  V30 66 Ba -7.1234 3.1805 0.1972 0
M  V30 67 Ba -0.3065 -1.8602 -3.7048 0
M  V30 68 Ga -1.1682 -1.1589 -4.6765 0
M  V30 69 Ba -2.0388 -0.4478 -5.6329 0
M  V30 70 Ba 4.8017 -5.8304 1.1525 0
M  V30 71 Ga 3.4404 -5.3135 1.3926 0
M  V30 72 Ba 2.1359 -4.7296 1.7601 0
M  V30 73 Ba 7.2660 -1.6115 0.4264 0
M  V30 74 Ga 7.1045 -3.0627 0.7255 0
M  V30 75 Ba 6.9846 -4.5288 0.9658 0
M  V30 76 Ba -2.0322 4.5939 -4.3535 0
M  V30 77 Ga -2.2899 3.3655 -5.1387 0
M  V30 78 Ba -2.5554 2.1302 -5.9103 0
M  V30 79 Ba -6.6077 2.9382 -3.2695 0
M  V30 80 Ga -5.6749 2.2908 -4.2257 0
M  V30 81 Ba -4.8033 1.6896 -5.2661 0
M  V30 82 Ba 1.9357 0.3200 4.1682 0
M  V30 83 Ga 1.9026 -1.1367 4.4038 0
M  V30 84 Ba 1.8630 -2.6087 4.5053 0
M  V30 85 Ba 5.2361 -6.2459 3.4477 0
M  V30 86 Ga 3.9200 -5.6911 3.8108 0
M  V30 87 Ba 2.6243 -5.0323 4.0548 0
M  V30 88 Ba 1.0940 -2.4052 2.3157 0
M  V30 89 Ga 0.6202 -1.9518 0.9929 0
M  V30 90 Ba 0.1077 -1.3816 -0.2689 0
M  V30 91 Ba -2.6164 0.1974 2.5461 0
M  V30 92 Ga -1.1405 0.2747 2.5281 0
M  V30 93 Ba 0.3348 0.1880 2.4981 0
M  V30 94 Ba 6.0717 1.3873 1.8294 0
M  V30 95 Ga 4.7052 1.7014 2.2958 0
M  V30 96 Ba 3.3297 1.9900 2.7526 0
M  V30 97 Ba -6.3654 4.7556 -1.8106 0
M  V30 98 Ga -5.0551 5.2934 -2.2378 0
M  V30 99 Ba -3.7266 5.7882 -2.6604 0
M  V30 END ATOM
M  V30 BEGIN BOND
M  V30 1 1 1 2
M  V30 2 1 1 3
M  V30 3 1 1 4
M  V30 4 1 1 5
M  V30 5 1 6 7
M  V30 6 1 6 8
M  V30 7 1 6 9
M  V30 8 1 6 10
M  V30 9 1 11 12
M  V30 10 1 11 13
M  V30 11 1 11 14
M  V30 12 1 11 15
M  V30 13 1 16 17
M  V30 14 1 16 18
M  V30 15 1 16 19
M  V30 16 1 16 20
M  V30 17 1 21 22
M  V30 18 1 21 23
M  V30 19 1 21 24
M  V30 20 1 21 25
M  V30 21 1 26 27
M  V30 22 1 26 28
M  V30 23 1 26 29
M  V30 24 1 26 30
M  V30 25 1 31 32
M  V30 26 1 31 33
M  V30 27 1 31 34
M  V30 28 1 31 35
M  V30 29 1 36 37
M  V30 30 1 36 38
M  V30 31 1 36 39
M  V30 32 1 36 40
M  V30 33 1 41 42
M  V30 34 1 41 43
M  V30 35 1 41 44
M  V30 36 1 41 45
M  V30 37 1 46 47
M  V30 38 1 47 48
M  V30 39 1 49 50
M  V30 40 1 50 51
M  V30 41 1 52 53
M  V30 42 1 53 54
M  V30 43 1 55 56
M  V30 44 1 56 57
M  V30 45 1 58 59
M  V30 46 1 59 60
M  V30 47 1 61 62
M  V30 48 1 62 63
M  V30 49 1 64 65
M  V30 50 1 65 66
M  V30 51 1 67 68
M  V30 52 1 68 69
M  V30 53 1 70 71
M  V30 54 1 71 72
M  V30 55 1 73 74
M  V30 56 1 74 75
M  V30 57 1 76 77
M  V30 58 1 77 78
M  V30 59 1 79 80
M  V30 60 1 80 81
M  V30 61 1 82 83
M  V30 62 1 83 84
M  V30 63 1 85 86
M  V30 64 1 86 87
M  V30 65 1 88 89
M  V30 66 1 89 90
M  V30 67 1 91 92
M  V30 68 1 92 93
M  V30 69 1 94 95
M  V30 70 1 95 96
M  V30 71 1 97 98
M  V30 72 1 98 99
M  V30 73 1 2 94
M  V30 74 1 3 73
M  V30 75 1 4 46
M  V30 76 1 5 49
M  V30 77 1 7 85
M  V30 78 1 8 48
M  V30 79 1 9 75
M  V30 80 1 10 70
M  V30 81 1 12 52
M  V30 82 1 13 61
M  V30 83 1 14 64
M  V30 84 1 15 91
M  V30 85 1 17 58
M  V30 86 1 18 97
M  V30 87 1 19 79
M  V30 88 1 20 66
M  V30 89 1 22 55
M  V30 90 1 23 82
M  V30 91 1 24 93
M  V30 92 1 25 96
M  V30 93 1 27 87
M  V30 94 1 28 88
M  V30 95 1 29 72
M  V30 96 1 30 84
M  V30 97 1 32 57
M  V30 98 1 33 76
M  V30 99 1 34 54
M  V30 100 1 35 99
M  V30 101 1 37 67
M  V30 102 1 38 63
M  V30 103 1 39 51
M  V30 104 1 40 90
M  V30 105 1 42 81
M  V30 106 1 43 60
M  V30 107 1 44 78
M  V30 108 1 45 69
M  V30 END BOND
M  V30 END CTAB
M  END

$$$$
