
     RDKit          3D

  0  0  0  0  0  0  0  0  0  0999 V3000
M  V30 BEGIN CTAB
M  V30 COUNTS 99 108 0 0 0
M  V30 BEGIN ATOM
M  V30 1 Pd 5.1250 5.9528 -0.9031 0
M  V30 2 Pb 4.4600 6.2418 -1.5855 0
M  V30 3 Pb 5.6956 5.6382 -0.1453 0
M  V30 4 Pb 5.1927 6.8789 -0.5352 0
M  V30 5 Pb 4.9678 5.0195 -1.2248 0
M  V30 6 Pd 3.3844 6.6332 3.3848 0
M  V30 7 Pb 2.9841 5.8113 3.7877 0
M  V30 8 Pb 3.7727 7.4248 2.9144 0
M  V30 9 Pb 4.2779 6.1890 3.3151 0
M  V30 10 Pb 2.4735 7.0450 3.3656 0
M  V30 11 Pd 2.0326 -3.7014 -3.3239 0
M  V30 12 Pb 1.2686 -3.8101 -3.9640 0
M  V30 13 Pb 2.7495 -3.5543 -2.6385 0
M  V30 14 Pb 1.8783 -4.6118 -2.9475 0
M  V30 15 Pb 2.1505 -2.7870 -3.7013 0
M  V30 16 Pd -3.0825 -7.7163 0.3931 0
M  V30 17 Pb -2.7840 -8.0476 1.2905 0
M  V30 18 Pb -3.3644 -7.3256 -0.4863 0
M  V30 19 Pb -4.0029 -7.6141 0.7695 0
M  V30 20 Pb -2.1586 -7.8037 0.0292 0
M  V30 21 Pd -1.3050 3.0337 -3.2671 0
M  V30 22 Pb -1.9750 2.2860 -3.2900 0
M  V30 23 Pb -1.9224 3.5939 -2.7134 0
M  V30 24 Pb -0.6333 2.4764 -3.7490 0
M  V30 25 Pb -0.6683 3.8019 -3.3165 0
M  V30 26 Pd -0.9339 4.3195 1.8440 0
M  V30 27 Pb -0.2961 4.0456 2.5649 0
M  V30 28 Pb -1.0668 3.3650 1.5794 0
M  V30 29 Pb -0.8018 5.2726 2.1215 0
M  V30 30 Pb -1.5786 4.5892 1.1246 0
M  V30 31 Pd -3.1729 -2.7625 -2.7813 0
M  V30 32 Pb -3.1842 -1.7777 -2.9866 0
M  V30 33 Pb -3.6686 -2.5513 -1.9394 0
M  V30 34 Pb -2.6214 -2.9802 -3.5896 0
M  V30 35 Pb -3.3122 -3.7519 -2.6531 0
M  V30 36 Pd 1.7482 -0.7223 0.7026 0
M  V30 37 Pb 1.4245 -1.2721 1.4741 0
M  V30 38 Pb 2.5303 -1.3258 0.5495 0
M  V30 39 Pb 2.1269 -0.1389 -0.0158 0
M  V30 40 Pb 0.9072 -0.1827 0.7703 0
M  V30 41 Pd -3.6634 -5.0036 4.1034 0
M  V30 42 Pb -4.4862 -5.4917 3.8220 0
M  V30 43 Pb -3.2482 -5.8799 4.3385 0
M  V30 44 Pb -4.0454 -4.1775 3.6981 0
M  V30 45 Pb -2.7968 -4.5358 4.2719 0
M  V30 46 Ag 1.7374 -5.2804 -2.6453 0
M  V30 47 Fe 0.1862 -6.6230 -1.4565 0
M  V30 48 Ag -1.4741 -7.8287 -0.2681 0
M  V30 49 Ag 1.1818 -1.6397 2.0828 0
M  V30 50 Fe -0.4597 -2.9197 3.2273 0
M  V30 51 Ag -2.1289 -4.2010 4.3296 0
M  V30 52 Ag -3.9919 -2.3750 -1.2866 0
M  V30 53 Fe -4.2353 -2.8895 1.0168 0
M  V30 54 Ag -4.3100 -3.6261 3.2706 0
M  V30 55 Ag 4.7627 4.3415 -1.4716 0
M  V30 56 Fe 3.6341 2.2984 -1.0314 0
M  V30 57 Ag 2.4904 0.2802 -0.5210 0
M  V30 58 Ag 2.1578 -2.1062 -4.0072 0
M  V30 59 Fe 1.0858 0.0072 -4.0852 0
M  V30 60 Ag -0.0868 2.0677 -4.0533 0
M  V30 61 Ag 3.8952 6.3731 -2.0543 0
M  V30 62 Fe 1.8361 5.4458 -2.7799 0
M  V30 63 Ag -0.1927 4.3766 -3.3860 0
M  V30 64 Ba 1.7746 7.3111 3.3084 0
M  V30 65 Ga 0.5280 6.6755 2.8389 0
M  V30 66 Ba -0.6790 5.9754 2.3574 0
M  V30 67 Ba 6.0483 5.4354 0.4840 0
M  V30 68 Ga 5.5717 5.6101 1.8684 0
M  V30 69 Ba 4.9403 5.8651 3.1765 0
M  V30 70 Ba -4.6617 -7.5193 1.1137 0
M  V30 71 Ga -4.9564 -6.7245 2.3166 0
M  V30 72 Ba -5.0478 -5.8778 3.5164 0
M  V30 73 Ba 5.1967 7.5414 -0.1868 0
M  V30 74 Ga 4.6656 7.8479 1.1522 0
M  V30 75 Ba 4.0851 7.9654 2.5007 0
M  V30 76 Ba -2.3438 4.0246 -2.2650 0
M  V30 77 Ga -2.2218 4.4055 -0.8422 0
M  V30 78 Ba -2.0703 4.7670 0.5828 0
M  V30 79 Ba 2.6508 5.1912 4.0434 0
M  V30 80 Ga 1.4238 4.5009 3.6044 0
M  V30 81 Ba 0.1875 3.8662 3.1103 0
M  V30 82 Ba 0.6847 -3.8350 -4.4385 0
M  V30 83 Ga -0.7547 -3.5168 -4.3158 0
M  V30 84 Ba -2.1905 -3.1932 -4.1689 0
M  V30 85 Ba -1.1980 2.6564 1.3745 0
M  V30 86 Ga -0.4280 1.4276 1.1005 0
M  V30 87 Ba 0.2294 0.1410 0.8008 0
M  V30 88 Ba -2.5242 1.7741 -3.3578 0
M  V30 89 Ga -2.8204 0.3300 -3.2167 0
M  V30 90 Ba -3.3385 -1.0552 -3.1472 0
M  V30 91 Ba -2.5856 -8.2389 1.9903 0
M  V30 92 Ga -2.7239 -7.4715 3.2427 0
M  V30 93 Ba -2.9429 -6.5614 4.3826 0
M  V30 94 Ba -3.5506 -7.0380 -1.1565 0
M  V30 95 Ga -3.4885 -5.7290 -1.8479 0
M  V30 96 Ba -3.4858 -4.4892 -2.6585 0
M  V30 97 Ba 3.2513 -3.4462 -2.0880 0
M  V30 98 Ga 3.2183 -2.6294 -0.8575 0
M  V30 99 Ba 3.0909 -1.7796 0.3440 0
M  V30 END ATOM
M  V30 BEGIN BOND
M  V30 1 1 1 2
M  V30 2 1 1 3
M  V30 3 1 1 4
M  V30 4 1 1 5
M  V30 5 1 6 7
M  V30 6 1 6 8
M  V30 7 1 6 9
M  V30 8 1 6 10
M  V30 9 1 11 12
M  V30 10 1 11 13
M  V30 11 1 11 14
M  V30 12 1 11 15
M  V30 13 1 16 17
M  V30 14 1 16 18
M  V30 15 1 16 19
M  V30 16 1 16 20
M  V30 17 1 21 22
M  V30 18 1 21 23
M  V30 19 1 21 24
M  V30 20 1 21 25
M  V30 21 1 26 27
M  V30 22 1 26 28
M  V30 23 1 26 29
M  V30 24 1 26 30
M  V30 25 1 31 32
M  V30 26 1 31 33
M  V30 27 1 31 34
M  V30 28 1 31 35
M  V30 29 1 36 37
M  V30 30 1 36 38
M  V30 31 1 36 39
M  V30 32 1 36 40
M  V30 33 1 41 42
M  V30 34 1 41 43
M  V30 35 1 41 44
M  V30 36 1 41 45
M  V30 37 1 46 47
M  V30 38 1 47 48
M  V30 39 1 49 50
M  V30 40 1 50 51
M  V30 41 1 52 53
M  V30 42 1 53 54
M  V30 43 1 55 56
M  V30 44 1 56 57
M  V30 45 1 58 59
M  V30 46 1 59 60
M  V30 47 1 61 62
M  V30 48 1 62 63
M  V30 49 1 64 65
M  V30 50 1 65 66
M  V30 51 1 67 68
M  V30 52 1 68 69
M  V30 53 1 70 71
M  V30 54 1 71 72
M  V30 55 1 73 74
M  V30 56 1 74 75
M  V30 57 1 76 77
M  V30 58 1 77 78
M  V30 59 1 79 80
M  V30 60 1 80 81
M  V30 61 1 82 83
M  V30 62 1 83 84
M  V30 63 1 85 86
M  V30 64 1 86 87
M  V30 65 1 88 89
M  V30 66 1 89 90
M  V30 67 1 91 92
M  V30 68 1 92 93
M  V30 69 1 94 95
M  V30 70 1 95 96
M  V30 71 1 97 98
M  V30 72 1 98 99
M  V30 73 1 2 61
M  V30 74 1 3 67
M  V30 75 1 4 73
M  V30 76 1 5 55
M  V30 77 1 7 79
M  V30 78 1 8 75
M  V30 79 1 9 69
M  V30 80 1 10 64
M  V30 81 1 12 82
M  V30 82 1 13 97
M  V30 83 1 14 46
M  V30 84 1 15 58
M  V30 85 1 17 91
M  V30 86 1 18 94
M  V30 87 1 19 70
M  V30 88 1 20 48
M  V30 89 1 22 88
M  V30 90 1 23 76
M  V30 91 1 24 60
M  V30 92 1 25 63
M  V30 93 1 27 81
M  V30 94 1 28 85
M  V30 95 1 29 66
M  V30 96 1 30 78
M  V30 97 1 32 90
M  V30 98 1 33 52
M  V30 99 1 34 84
M  V30 100 1 35 96
M  V30 101 1 37 49
M  V30 102 1 38 99
M  V30 103 1 39 57
M  V30 104 1 40 87
M  V30 105 1 42 72
M  V30 106 1 43 93
M  V30 107 1 44 54
M  V30 108 1 45 51
M  V30 END BOND
M  V30 END CTAB
M  END

$$$$
