
     RDKit          3D

  0  0  0  0  0  0  0  0  0  0999 V3000
M  V30 BEGIN CTAB
M  V30 COUNTS 99 108 0 0 0
M  V30 BEGIN ATOM
M  V30 1 Pd -4.3113 -1.8703 3.2145 0
M  V30 2 Pb -4.1471 -2.2413 4.1226 0
M  V30 3 Pb -4.5468 -1.0091 3.6727 0
M  V30 4 Pb -3.9174 -2.6993 2.8260 0
M  V30 5 Pb -4.5203 -1.5361 2.2924 0
M  V30 6 Pd -1.4832 -1.3215 -6.2241 0
M  V30 7 Pb -1.1496 -1.9454 -5.5106 0
M  V30 8 Pb -0.7935 -1.7299 -6.8283 0
M  V30 9 Pb -2.2526 -0.9979 -5.6724 0
M  V30 10 Pb -1.7852 -0.6452 -6.9026 0
M  V30 11 Pd 1.8412 1.5272 0.1573 0
M  V30 12 Pb 0.9431 1.8801 0.4237 0
M  V30 13 Pb 2.2664 2.1539 0.8015 0
M  V30 14 Pb 2.7311 1.1382 -0.0706 0
M  V30 15 Pb 1.4665 0.8004 -0.4150 0
M  V30 16 Pd -0.3358 3.5413 -6.2605 0
M  V30 17 Pb 0.2898 3.3116 -7.0044 0
M  V30 18 Pb -0.9363 3.7817 -5.4947 0
M  V30 19 Pb 0.4747 3.6869 -5.6939 0
M  V30 20 Pb -1.0903 3.1964 -6.8196 0
M  V30 21 Pd 3.6161 -1.5019 -6.1816 0
M  V30 22 Pb 3.8568 -0.9837 -6.9957 0
M  V30 23 Pb 3.1706 -1.8697 -5.3691 0
M  V30 24 Pb 3.1028 -2.1306 -6.7580 0
M  V30 25 Pb 3.9456 -0.7344 -5.6325 0
M  V30 26 Pd -1.3323 0.5827 9.1783 0
M  V30 27 Pb -0.5818 0.1106 9.6376 0
M  V30 28 Pb -2.0424 0.9947 8.5976 0
M  V30 29 Pb -0.8040 1.4288 9.2407 0
M  V30 30 Pb -1.8030 -0.2829 9.0530 0
M  V30 31 Pd -3.2860 1.5297 -1.6465 0
M  V30 32 Pb -2.8685 1.9061 -0.8228 0
M  V30 33 Pb -3.7270 0.7921 -1.1286 0
M  V30 34 Pb -3.6646 1.1217 -2.4729 0
M  V30 35 Pb -2.9523 2.3177 -2.1712 0
M  V30 36 Pd 3.1157 0.7482 7.2636 0
M  V30 37 Pb 3.3163 1.3789 6.5187 0
M  V30 38 Pb 2.8922 0.1474 8.0312 0
M  V30 39 Pb 2.7456 1.5128 7.7927 0
M  V30 40 Pb 3.3950 -0.0304 6.6902 0
M  V30 41 Pd 2.3124 -3.1952 0.5321 0
M  V30 42 Pb 3.0575 -2.6323 0.1754 0
M  V30 43 Pb 1.5346 -3.7213 0.8713 0
M  V30 44 Pb 1.9086 -3.3179 -0.3808 0
M  V30 45 Pb 2.6913 -3.0748 1.4583 0
M  V30 46 Ag -4.6093 -0.4015 4.1162 0
M  V30 47 Fe -3.6798 0.5306 6.1018 0
M  V30 48 Ag -2.5700 1.2062 8.0988 0
M  V30 49 Ag 3.5686 -0.6152 6.2423 0
M  V30 50 Fe 3.2730 -1.7880 4.1887 0
M  V30 51 Ag 2.9982 -2.9832 2.1451 0
M  V30 52 Ag 2.5915 2.5319 1.3536 0
M  V30 53 Fe 3.0791 2.3267 3.6623 0
M  V30 54 Ag 3.4302 1.8577 5.9576 0
M  V30 55 Ag 1.3236 0.1887 -0.8224 0
M  V30 56 Fe 1.9471 -1.0210 -2.7666 0
M  V30 57 Ag 2.7403 -2.0083 -4.7735 0
M  V30 58 Ag 0.8056 3.0954 -7.5012 0
M  V30 59 Fe 2.4467 1.4163 -7.8118 0
M  V30 60 Ag 3.8418 -0.4765 -7.5383 0
M  V30 61 Ag -0.8423 -2.4208 -5.0109 0
M  V30 62 Fe 0.3569 -2.8805 -3.0058 0
M  V30 63 Ag 1.5483 -3.4649 -1.0288 0
M  V30 64 Ag -3.5085 -3.2775 2.5893 0
M  V30 65 Fe -1.3324 -3.8135 1.8120 0
M  V30 66 Ag 0.9013 -4.0746 1.0570 0
M  V30 67 Ag -4.0317 -2.4756 4.8195 0
M  V30 68 Fe -3.1380 -1.8586 6.9216 0
M  V30 69 Ag -2.1481 -0.9075 8.8484 0
M  V30 70 Ag 1.1250 3.6215 -5.3276 0
M  V30 71 Fe 2.7718 1.9251 -5.1139 0
M  V30 72 Ag 4.0320 -0.0798 -5.2781 0
M  V30 73 Ba -1.3526 4.0026 -4.9082 0
M  V30 74 Ga -2.0444 3.4153 -3.7404 0
M  V30 75 Ba -2.7704 2.9499 -2.5391 0
M  V30 76 Ba -2.0529 -0.0910 -7.3401 0
M  V30 77 Ga -1.8505 1.3757 -7.3358 0
M  V30 78 Ba -1.5792 2.8290 -7.2563 0
M  V30 79 Ba 0.0203 -0.2531 9.8941 0
M  V30 80 Ga 1.3762 -0.2975 9.3179 0
M  V30 81 Ba 2.6808 -0.2465 8.6335 0
M  V30 82 Ba 3.3536 0.7616 -0.2418 0
M  V30 83 Ga 3.5557 -0.6953 -0.1818 0
M  V30 84 Ba 3.5904 -2.1624 -0.0632 0
M  V30 85 Ba -0.3030 -2.1188 -7.2495 0
M  V30 86 Ga 1.1574 -2.3356 -7.2545 0
M  V30 87 Ba 2.6240 -2.4936 -7.2008 0
M  V30 88 Ba -4.7152 -1.3720 1.5843 0
M  V30 89 Ga -4.3545 -0.5135 0.4359 0
M  V30 90 Ba -4.1458 0.2524 -0.8114 0
M  V30 91 Ba -0.3329 2.0111 9.2693 0
M  V30 92 Ga 1.0430 2.1065 8.7457 0
M  V30 93 Ba 2.4017 2.0617 8.1724 0
M  V30 94 Ba 0.2878 2.1544 0.6676 0
M  V30 95 Ga -1.1171 2.1684 0.2219 0
M  V30 96 Ba -2.5227 2.1843 -0.2215 0
M  V30 97 Ba -2.8897 -0.7590 -5.3544 0
M  V30 98 Ga -3.3785 0.0164 -4.2006 0
M  V30 99 Ba -3.9451 0.7784 -3.0735 0
M  V30 END ATOM
M  V30 BEGIN BOND
M  V30 1 1 1 2
M  V30 2 1 1 3
M  V30 3 1 1 4
M  V30 4 1 1 5
M  V30 5 1 6 7
M  V30 6 1 6 8
M  V30 7 1 6 9
M  V30 8 1 6 10
M  V30 9 1 11 12
M  V30 10 1 11 13
M  V30 11 1 11 14
M  V30 12 1 11 15
M  V30 13 1 16 17
M  V30 14 1 16 18
M  V30 15 1 16 19
M  V30 16 1 16 20
M  V30 17 1 21 22
M  V30 18 1 21 23
M  V30 19 1 21 24
M  V30 20 1 21 25
M  V30 21 1 26 27
M  V30 22 1 26 28
M  V30 23 1 26 29
M  V30 24 1 26 30
M  V30 25 1 31 32
M  V30 26 1 31 33
M  V30 27 1 31 34
M  V30 28 1 31 35
M  V30 29 1 36 37
M  V30 30 1 36 38
M  V30 31 1 36 39
M  V30 32 1 36 40
M  V30 33 1 41 42
M  V30 34 1 41 43
M  V30 35 1 41 44
M  V30 36 1 41 45
M  V30 37 1 46 47
M  V30 38 1 47 48
M  V30 39 1 49 50
M  V30 40 1 50 51
M  V30 41 1 52 53
M  V30 42 1 53 54
M  V30 43 1 55 56
M  V30 44 1 56 57
M  V30 45 1 58 59
M  V30 46 1 59 60
M  V30 47 1 61 62
M  V30 48 1 62 63
M  V30 49 1 64 65
M  V30 50 1 65 66
M  V30 51 1 67 68
M  V30 52 1 68 69
M  V30 53 1 70 71
M  V30 54 1 71 72
M  V30 55 1 73 74
M  V30 56 1 74 75
M  V30 57 1 76 77
M  V30 58 1 77 78
M  V30 59 1 79 80
M  V30 60 1 80 81
M  V30 61 1 82 83
M  V30 62 1 83 84
M  V30 63 1 85 86
M  V30 64 1 86 87
M  V30 65 1 88 89
M  V30 66 1 89 90
M  V30 67 1 91 92
M  V30 68 1 92 93
M  V30 69 1 94 95
M  V30 70 1 95 96
M  V30 71 1 97 98
M  V30 72 1 98 99
M  V30 73 1 2 67
M  V30 74 1 3 46
M  V30 75 1 4 64
M  V30 76 1 5 88
M  V30 77 1 7 61
M  V30 78 1 8 85
M  V30 79 1 9 97
M  V30 80 1 10 76
M  V30 81 1 12 94
M  V30 82 1 13 52
M  V30 83 1 14 82
M  V30 84 1 15 55
M  V30 85 1 17 58
M  V30 86 1 18 73
M  V30 87 1 19 70
M  V30 88 1 20 78
M  V30 89 1 22 60
M  V30 90 1 23 57
M  V30 91 1 24 87
M  V30 92 1 25 72
M  V30 93 1 27 79
M  V30 94 1 28 48
M  V30 95 1 29 91
M  V30 96 1 30 69
M  V30 97 1 32 96
M  V30 98 1 33 90
M  V30 99 1 34 99
M  V30 100 1 35 75
M  V30 101 1 37 54
M  V30 102 1 38 81
M  V30 103 1 39 93
M  V30 104 1 40 49
M  V30 105 1 42 84
M  V30 106 1 43 66
M  V30 107 1 44 63
M  V30 108 1 45 51
M  V30 END BOND
M  V30 END CTAB
M  END

$$$$
