
     RDKit          3D

  0  0  0  0  0  0  0  0  0  0999 V3000
M  V30 BEGIN CTAB
M  V30 COUNTS 99 108 0 0 0
M  V30 BEGIN ATOM
M  V30 1 Pd 2.0284 -1.7775 3.5505 0
M  V30 2 Pb 1.1077 -1.5492 3.8591 0
M  V30 3 Pb 1.8843 -2.6962 3.9113 0
M  V30 4 Pb 2.1747 -0.8155 3.3066 0
M  V30 5 Pb 2.9218 -2.0464 3.1838 0
M  V30 6 Pd 3.9788 5.0220 -0.1813 0
M  V30 7 Pb 4.3086 5.5589 -0.9529 0
M  V30 8 Pb 4.2054 4.1912 -0.6921 0
M  V30 9 Pb 3.6321 4.4748 0.5823 0
M  V30 10 Pb 3.6565 5.8774 0.2274 0
M  V30 11 Pd 1.7940 4.4843 -4.2458 0
M  V30 12 Pb 1.0525 3.8173 -4.2791 0
M  V30 13 Pb 2.4536 3.7666 -4.0193 0
M  V30 14 Pb 1.1367 5.2310 -4.3147 0
M  V30 15 Pb 2.5361 5.1478 -4.2065 0
M  V30 16 Pd -3.7605 2.3549 1.6070 0
M  V30 17 Pb -3.9045 2.9972 2.3515 0
M  V30 18 Pb -3.5189 1.7121 0.8787 0
M  V30 19 Pb -3.7973 3.1261 0.9450 0
M  V30 20 Pb -3.6119 1.6344 2.2785 0
M  V30 21 Pd -0.4851 -2.8812 -3.6367 0
M  V30 22 Pb 0.4768 -2.6329 -3.5121 0
M  V30 23 Pb -1.4550 -3.1068 -3.7463 0
M  V30 24 Pb -0.7162 -1.9238 -3.7976 0
M  V30 25 Pb -0.2379 -3.8379 -3.4777 0
M  V30 26 Pd -0.8445 7.0636 -0.2473 0
M  V30 27 Pb -1.7001 6.5319 -0.3860 0
M  V30 28 Pb -1.0677 7.1369 0.7182 0
M  V30 29 Pb -0.6916 7.0812 -1.2403 0
M  V30 30 Pb 0.0394 7.4915 -0.0460 0
M  V30 31 Pd -1.6523 -6.2888 3.8517 0
M  V30 32 Pb -2.4012 -6.8552 3.5265 0
M  V30 33 Pb -0.9928 -7.0261 3.7397 0
M  V30 34 Pb -2.2532 -5.4698 3.7817 0
M  V30 35 Pb -0.8694 -5.7725 4.1985 0
M  V30 36 Pd 3.2616 -4.8987 -0.5638 0
M  V30 37 Pb 3.1627 -5.6782 0.0547 0
M  V30 38 Pb 2.6373 -5.3477 -1.2051 0
M  V30 39 Pb 3.8362 -4.4169 0.1027 0
M  V30 40 Pb 3.3171 -4.1217 -1.1903 0
M  V30 41 Pd -4.3514 -3.1009 -0.1599 0
M  V30 42 Pb -3.8630 -2.2339 -0.2785 0
M  V30 43 Pb -4.1716 -3.1377 0.8431 0
M  V30 44 Pb -4.8574 -3.9526 -0.0834 0
M  V30 45 Pb -4.4336 -3.1554 -1.1545 0
M  V30 46 Ag -2.9924 -7.1604 3.2041 0
M  V30 47 Fe -4.4292 -6.2943 1.5553 0
M  V30 48 Ag -5.1376 -4.6218 0.0603 0
M  V30 49 Ag -3.8585 3.5597 2.8287 0
M  V30 50 Fe -2.6768 5.5801 2.5797 0
M  V30 51 Ag -1.3369 7.1216 1.4082 0
M  V30 52 Ag 0.4996 3.3142 -4.3009 0
M  V30 53 Fe -0.2091 1.0577 -4.1134 0
M  V30 54 Ag -0.8902 -1.2067 -3.9205 0
M  V30 55 Ag -0.3979 -7.4308 3.5465 0
M  V30 56 Fe 1.4245 -7.0628 2.0751 0
M  V30 57 Ag 3.0139 -6.2532 0.5121 0
M  V30 58 Ag 0.3984 -1.3991 4.0407 0
M  V30 59 Fe -1.5658 -0.1867 3.4989 0
M  V30 60 Ag -3.4071 1.1233 2.7818 0
M  V30 61 Ag 2.2535 -0.0717 3.2172 0
M  V30 62 Fe 2.8368 1.9538 2.1172 0
M  V30 63 Ag 3.3673 4.0604 1.1504 0
M  V30 64 Ba 1.7694 -3.3471 4.2612 0
M  V30 65 Ga 0.7367 -4.3979 4.3182 0
M  V30 66 Ba -0.2213 -5.5080 4.4695 0
M  V30 67 Ba -3.2739 1.2377 0.3505 0
M  V30 68 Ga -3.4261 -0.1865 -0.0114 0
M  V30 69 Ba -3.5092 -1.5935 -0.4539 0
M  V30 70 Ba 3.5743 -2.2768 2.8877 0
M  V30 71 Ga 3.9237 -3.1558 1.7503 0
M  V30 72 Ba 4.2471 -4.0382 0.6079 0
M  V30 73 Ba -3.8286 3.7104 0.4491 0
M  V30 74 Ga -3.0394 4.9066 0.0190 0
M  V30 75 Ba -2.3427 6.1273 -0.4938 0
M  V30 76 Ba 3.3880 6.5469 0.4401 0
M  V30 77 Ga 2.0536 7.1738 0.3222 0
M  V30 78 Ba 0.7033 7.7616 0.1849 0
M  V30 79 Ba 4.3159 3.6082 -1.1532 0
M  V30 80 Ga 3.6842 3.3626 -2.4658 0
M  V30 81 Ba 2.9583 3.2801 -3.7498 0
M  V30 82 Ba -2.1934 -3.2269 -3.8226 0
M  V30 83 Ga -3.3322 -3.2367 -2.8830 0
M  V30 84 Ba -4.4335 -3.2370 -1.8997 0
M  V30 85 Ba 4.5010 5.9385 -1.5650 0
M  V30 86 Ga 3.8698 5.8549 -2.8864 0
M  V30 87 Ba 3.1049 5.6213 -4.1159 0
M  V30 88 Ba -2.6915 -4.8437 3.6971 0
M  V30 89 Ga -3.3504 -4.0493 2.6093 0
M  V30 90 Ba -4.0472 -3.1850 1.6014 0
M  V30 91 Ba -0.0109 -4.5432 -3.3555 0
M  V30 92 Ga 1.0598 -5.1249 -2.5214 0
M  V30 93 Ba 2.1417 -5.6639 -1.6731 0
M  V30 94 Ba 1.1976 -2.4504 -3.4053 0
M  V30 95 Ga 2.2742 -2.9838 -2.5486 0
M  V30 96 Ba 3.3202 -3.5500 -1.6752 0
M  V30 97 Ba 0.6583 5.8050 -4.2845 0
M  V30 98 Ga 0.0072 6.4665 -3.1351 0
M  V30 99 Ba -0.6470 7.1362 -1.9922 0
M  V30 END ATOM
M  V30 BEGIN BOND
M  V30 1 1 1 2
M  V30 2 1 1 3
M  V30 3 1 1 4
M  V30 4 1 1 5
M  V30 5 1 6 7
M  V30 6 1 6 8
M  V30 7 1 6 9
M  V30 8 1 6 10
M  V30 9 1 11 12
M  V30 10 1 11 13
M  V30 11 1 11 14
M  V30 12 1 11 15
M  V30 13 1 16 17
M  V30 14 1 16 18
M  V30 15 1 16 19
M  V30 16 1 16 20
M  V30 17 1 21 22
M  V30 18 1 21 23
M  V30 19 1 21 24
M  V30 20 1 21 25
M  V30 21 1 26 27
M  V30 22 1 26 28
M  V30 23 1 26 29
M  V30 24 1 26 30
M  V30 25 1 31 32
M  V30 26 1 31 33
M  V30 27 1 31 34
M  V30 28 1 31 35
M  V30 29 1 36 37
M  V30 30 1 36 38
M  V30 31 1 36 39
M  V30 32 1 36 40
M  V30 33 1 41 42
M  V30 34 1 41 43
M  V30 35 1 41 44
M  V30 36 1 41 45
M  V30 37 1 46 47
M  V30 38 1 47 48
M  V30 39 1 49 50
M  V30 40 1 50 51
M  V30 41 1 52 53
M  V30 42 1 53 54
M  V30 43 1 55 56
M  V30 44 1 56 57
M  V30 45 1 58 59
M  V30 46 1 59 60
M  V30 47 1 61 62
M  V30 48 1 62 63
M  V30 49 1 64 65
M  V30 50 1 65 66
M  V30 51 1 67 68
M  V30 52 1 68 69
M  V30 53 1 70 71
M  V30 54 1 71 72
M  V30 55 1 73 74
M  V30 56 1 74 75
M  V30 57 1 76 77
M  V30 58 1 77 78
M  V30 59 1 79 80
M  V30 60 1 80 81
M  V30 61 1 82 83
M  V30 62 1 83 84
M  V30 63 1 85 86
M  V30 64 1 86 87
M  V30 65 1 88 89
M  V30 66 1 89 90
M  V30 67 1 91 92
M  V30 68 1 92 93
M  V30 69 1 94 95
M  V30 70 1 95 96
M  V30 71 1 97 98
M  V30 72 1 98 99
M  V30 73 1 2 58
M  V30 74 1 3 64
M  V30 75 1 4 61
M  V30 76 1 5 70
M  V30 77 1 7 85
M  V30 78 1 8 79
M  V30 79 1 9 63
M  V30 80 1 10 76
M  V30 81 1 12 52
M  V30 82 1 13 81
M  V30 83 1 14 97
M  V30 84 1 15 87
M  V30 85 1 17 49
M  V30 86 1 18 67
M  V30 87 1 19 73
M  V30 88 1 20 60
M  V30 89 1 22 94
M  V30 90 1 23 82
M  V30 91 1 24 54
M  V30 92 1 25 91
M  V30 93 1 27 75
M  V30 94 1 28 51
M  V30 95 1 29 99
M  V30 96 1 30 78
M  V30 97 1 32 46
M  V30 98 1 33 55
M  V30 99 1 34 88
M  V30 100 1 35 66
M  V30 101 1 37 57
M  V30 102 1 38 93
M  V30 103 1 39 72
M  V30 104 1 40 96
M  V30 105 1 42 69
M  V30 106 1 43 90
M  V30 107 1 44 48
M  V30 108 1 45 84
M  V30 END BOND
M  V30 END CTAB
M  END

$$$$
