
     RDKit          3D

  0  0  0  0  0  0  0  0  0  0999 V3000
M  V30 BEGIN CTAB
M  V30 COUNTS 99 108 0 0 0
M  V30 BEGIN ATOM
M  V30 1 Pd -1.3363 -1.0150 5.6486 0
M  V30 2 Pb -0.3523 -1.1130 5.8056 0
M  V30 3 Pb -1.3141 -0.1072 6.0689 0
M  V30 4 Pb -1.3994 -1.9391 5.2706 0
M  V30 5 Pb -2.3001 -0.8809 5.4273 0
M  V30 6 Pd 0.1821 6.1156 -1.0698 0
M  V30 7 Pb 0.3449 5.7615 -1.9881 0
M  V30 8 Pb -0.0455 6.4262 -0.1360 0
M  V30 9 Pb -0.7059 6.4657 -1.3493 0
M  V30 10 Pb 1.0232 5.7169 -0.7154 0
M  V30 11 Pd 4.0122 -1.1333 -4.4413 0
M  V30 12 Pb 4.2861 -0.5553 -3.6662 0
M  V30 13 Pb 3.5207 -0.3974 -4.9056 0
M  V30 14 Pb 3.6929 -1.7549 -5.1542 0
M  V30 15 Pb 4.5178 -1.8680 -3.9987 0
M  V30 16 Pd -0.2407 -4.2784 -4.4146 0
M  V30 17 Pb 0.4723 -4.0732 -5.0872 0
M  V30 18 Pb -0.9600 -4.5124 -3.7595 0
M  V30 19 Pb -0.8014 -3.5229 -4.7590 0
M  V30 20 Pb 0.3037 -5.0428 -4.0654 0
M  V30 21 Pd -0.9706 1.4964 -4.4246 0
M  V30 22 Pb -0.6393 2.4262 -4.2452 0
M  V30 23 Pb -0.1368 1.3991 -4.9674 0
M  V30 24 Pb -1.3024 0.5938 -4.7117 0
M  V30 25 Pb -1.8156 1.5968 -3.8888 0
M  V30 26 Pd -0.0878 -6.5879 0.3293 0
M  V30 27 Pb -0.8712 -6.2997 -0.2203 0
M  V30 28 Pb 0.7104 -6.8160 0.8848 0
M  V30 29 Pb -0.5553 -6.3145 1.1685 0
M  V30 30 Pb 0.4035 -6.8131 -0.5125 0
M  V30 31 Pd 5.3587 -2.7110 2.4292 0
M  V30 32 Pb 4.9466 -2.3345 3.2596 0
M  V30 33 Pb 5.1798 -3.6347 2.7579 0
M  V30 34 Pb 5.6971 -3.1048 1.5800 0
M  V30 35 Pb 5.4184 -1.8166 1.9785 0
M  V30 36 Pd -5.5815 3.5602 1.5552 0
M  V30 37 Pb -5.5328 3.0319 0.7054 0
M  V30 38 Pb -5.5090 4.0942 2.3999 0
M  V30 39 Pb -5.4818 4.3783 0.9959 0
M  V30 40 Pb -5.6531 2.7329 2.1093 0
M  V30 41 Pd -1.2777 4.5758 4.4670 0
M  V30 42 Pb -1.1787 5.2927 3.7604 0
M  V30 43 Pb -1.3331 3.9075 5.2100 0
M  V30 44 Pb -2.2466 4.8124 4.5851 0
M  V30 45 Pb -0.3243 4.3346 4.3046 0
M  V30 46 Ag 0.3935 -1.1499 5.8885 0
M  V30 47 Fe 2.5155 -1.6119 4.9238 0
M  V30 48 Ag 4.5933 -2.0977 3.8783 0
M  V30 49 Ag -2.4747 1.6017 -3.5191 0
M  V30 50 Fe -3.9410 2.1493 -1.7265 0
M  V30 51 Ag -5.4363 2.6802 0.0472 0
M  V30 52 Ag 4.9060 -2.3703 -3.6083 0
M  V30 53 Fe 5.4912 -2.9992 -1.4012 0
M  V30 54 Ag 5.8792 -3.3651 0.9063 0
M  V30 55 Ag 1.5366 5.3973 -0.2844 0
M  V30 56 Fe 1.3705 4.6454 1.9484 0
M  V30 57 Ag 0.3604 4.2132 4.0396 0
M  V30 58 Ag 4.4971 -0.2101 -3.0283 0
M  V30 59 Fe 4.9873 -0.5720 -0.7262 0
M  V30 60 Ag 5.4172 -1.2125 1.5268 0
M  V30 61 Ag -1.4181 6.6622 -1.4338 0
M  V30 62 Fe -3.5137 5.9775 -0.5727 0
M  V30 63 Ag -5.3326 4.9456 0.5361 0
M  V30 64 Ag -1.5001 -2.6350 5.0080 0
M  V30 65 Fe -1.1795 -4.3556 3.4030 0
M  V30 66 Ag -0.8695 -6.0891 1.8099 0
M  V30 67 Ag -3.0038 -0.7512 5.2101 0
M  V30 68 Fe -4.4130 0.6405 3.9040 0
M  V30 69 Ag -5.6709 2.1297 2.5516 0
M  V30 70 Ag 1.3093 -6.9075 1.3245 0
M  V30 71 Fe 3.1947 -5.7772 2.2151 0
M  V30 72 Ag 4.9510 -4.3331 2.8887 0
M  V30 73 Ba 0.4270 5.4986 -2.6832 0
M  V30 74 Ga 0.0289 4.2750 -3.4080 0
M  V30 75 Ba -0.3136 3.1064 -4.2426 0
M  V30 76 Ba -1.2506 -2.9802 -5.0217 0
M  V30 77 Ga -1.3730 -1.5081 -4.9621 0
M  V30 78 Ba -1.5984 -0.0472 -4.9745 0
M  V30 79 Ba -1.4947 -4.7121 -3.2720 0
M  V30 80 Ga -1.4864 -5.3817 -1.9577 0
M  V30 81 Ba -1.4373 -6.0531 -0.6452 0
M  V30 82 Ba -0.2606 6.6881 0.5440 0
M  V30 83 Ga -0.6568 6.2067 1.8950 0
M  V30 84 Ba -1.0740 5.8773 3.2845 0
M  V30 85 Ba 0.6946 -5.6233 -3.7923 0
M  V30 86 Ga 0.7440 -6.2984 -2.4804 0
M  V30 87 Ba 0.7667 -6.9482 -1.1551 0
M  V30 88 Ba 3.4098 -2.2248 -5.6632 0
M  V30 89 Ga 2.2129 -3.0865 -5.6468 0
M  V30 90 Ba 1.0082 -3.9359 -5.5958 0
M  V30 91 Ba -5.4013 4.4741 3.0403 0
M  V30 92 Ga -4.1966 4.7414 3.8572 0
M  V30 93 Ba -2.9757 4.9933 4.6547 0
M  V30 94 Ba -1.3244 0.5568 6.4189 0
M  V30 95 Ga -1.3357 1.9897 6.0648 0
M  V30 96 Ba -1.3495 3.4414 5.7986 0
M  V30 97 Ba 3.1543 0.1175 -5.3087 0
M  V30 98 Ga 1.8175 0.7401 -5.3119 0
M  V30 99 Ba 0.4977 1.3956 -5.3670 0
M  V30 END ATOM
M  V30 BEGIN BOND
M  V30 1 1 1 2
M  V30 2 1 1 3
M  V30 3 1 1 4
M  V30 4 1 1 5
M  V30 5 1 6 7
M  V30 6 1 6 8
M  V30 7 1 6 9
M  V30 8 1 6 10
M  V30 9 1 11 12
M  V30 10 1 11 13
M  V30 11 1 11 14
M  V30 12 1 11 15
M  V30 13 1 16 17
M  V30 14 1 16 18
M  V30 15 1 16 19
M  V30 16 1 16 20
M  V30 17 1 21 22
M  V30 18 1 21 23
M  V30 19 1 21 24
M  V30 20 1 21 25
M  V30 21 1 26 27
M  V30 22 1 26 28
M  V30 23 1 26 29
M  V30 24 1 26 30
M  V30 25 1 31 32
M  V30 26 1 31 33
M  V30 27 1 31 34
M  V30 28 1 31 35
M  V30 29 1 36 37
M  V30 30 1 36 38
M  V30 31 1 36 39
M  V30 32 1 36 40
M  V30 33 1 41 42
M  V30 34 1 41 43
M  V30 35 1 41 44
M  V30 36 1 41 45
M  V30 37 1 46 47
M  V30 38 1 47 48
M  V30 39 1 49 50
M  V30 40 1 50 51
M  V30 41 1 52 53
M  V30 42 1 53 54
M  V30 43 1 55 56
M  V30 44 1 56 57
M  V30 45 1 58 59
M  V30 46 1 59 60
M  V30 47 1 61 62
M  V30 48 1 62 63
M  V30 49 1 64 65
M  V30 50 1 65 66
M  V30 51 1 67 68
M  V30 52 1 68 69
M  V30 53 1 70 71
M  V30 54 1 71 72
M  V30 55 1 73 74
M  V30 56 1 74 75
M  V30 57 1 76 77
M  V30 58 1 77 78
M  V30 59 1 79 80
M  V30 60 1 80 81
M  V30 61 1 82 83
M  V30 62 1 83 84
M  V30 63 1 85 86
M  V30 64 1 86 87
M  V30 65 1 88 89
M  V30 66 1 89 90
M  V30 67 1 91 92
M  V30 68 1 92 93
M  V30 69 1 94 95
M  V30 70 1 95 96
M  V30 71 1 97 98
M  V30 72 1 98 99
M  V30 73 1 2 46
M  V30 74 1 3 94
M  V30 75 1 4 64
M  V30 76 1 5 67
M  V30 77 1 7 73
M  V30 78 1 8 82
M  V30 79 1 9 61
M  V30 80 1 10 55
M  V30 81 1 12 58
M  V30 82 1 13 97
M  V30 83 1 14 88
M  V30 84 1 15 52
M  V30 85 1 17 90
M  V30 86 1 18 79
M  V30 87 1 19 76
M  V30 88 1 20 85
M  V30 89 1 22 75
M  V30 90 1 23 99
M  V30 91 1 24 78
M  V30 92 1 25 49
M  V30 93 1 27 81
M  V30 94 1 28 70
M  V30 95 1 29 66
M  V30 96 1 30 87
M  V30 97 1 32 48
M  V30 98 1 33 72
M  V30 99 1 34 54
M  V30 100 1 35 60
M  V30 101 1 37 51
M  V30 102 1 38 91
M  V30 103 1 39 63
M  V30 104 1 40 69
M  V30 105 1 42 84
M  V30 106 1 43 96
M  V30 107 1 44 93
M  V30 108 1 45 57
M  V30 END BOND
M  V30 END CTAB
M  END

$$$$
