
     RDKit          3D

  0  0  0  0  0  0  0  0  0  0999 V3000
M  V30 BEGIN CTAB
M  V30 COUNTS 99 108 0 0 0
M  V30 BEGIN ATOM
M  V30 1 Pd 2.0419 4.0173 -4.0853 0
M  V30 2 Pb 2.1284 4.6487 -3.3205 0
M  V30 3 Pb 2.7117 3.3881 -3.6818 0
M  V30 4 Pb 1.8360 3.3728 -4.8204 0
M  V30 5 Pb 1.3678 4.6433 -4.4724 0
M  V30 6 Pd 3.4221 0.0288 4.1396 0
M  V30 7 Pb 4.1850 -0.2944 3.5755 0
M  V30 8 Pb 2.5920 0.3590 4.6044 0
M  V30 9 Pb 3.2761 -0.9020 4.4740 0
M  V30 10 Pb 3.6103 0.9602 3.8476 0
M  V30 11 Pd 0.1854 4.0657 3.0072 0
M  V30 12 Pb 0.3803 4.7438 2.3048 0
M  V30 13 Pb 1.1724 3.9569 3.0782 0
M  V30 14 Pb 0.0752 3.3543 3.7089 0
M  V30 15 Pb -0.8030 4.2237 2.9029 0
M  V30 16 Pd 2.7560 -0.5289 -0.4882 0
M  V30 17 Pb 2.8991 -0.7609 -1.4525 0
M  V30 18 Pb 3.1665 0.1533 -1.1032 0
M  V30 19 Pb 3.6792 -0.7391 -0.1673 0
M  V30 20 Pb 2.4684 -0.8290 0.4253 0
M  V30 21 Pd -2.6372 2.8412 -4.9832 0
M  V30 22 Pb -2.9277 1.8951 -4.8527 0
M  V30 23 Pb -1.8574 2.4963 -5.5099 0
M  V30 24 Pb -2.2993 3.7674 -5.1279 0
M  V30 25 Pb -3.3731 3.2139 -4.4124 0
M  V30 26 Pd 0.1216 -6.6422 3.1055 0
M  V30 27 Pb 0.7789 -6.2675 3.7543 0
M  V30 28 Pb -0.6152 -6.3160 3.6929 0
M  V30 29 Pb 0.8464 -6.8255 2.4430 0
M  V30 30 Pb -0.5297 -6.8916 2.3915 0
M  V30 31 Pd -4.5913 2.4352 0.2096 0
M  V30 32 Pb -4.5093 1.7727 0.9695 0
M  V30 33 Pb -4.9781 1.6873 -0.3201 0
M  V30 34 Pb -4.2121 3.1580 0.7963 0
M  V30 35 Pb -4.7108 3.0481 -0.5737 0
M  V30 36 Pd -1.6079 -2.0671 2.3830 0
M  V30 37 Pb -2.4728 -1.5548 2.4775 0
M  V30 38 Pb -0.6429 -2.1216 2.6253 0
M  V30 39 Pb -2.3701 -2.3859 1.8278 0
M  V30 40 Pb -1.8749 -2.7124 3.1021 0
M  V30 41 Pd 0.2300 -4.0467 -3.3340 0
M  V30 42 Pb -0.5197 -3.4822 -3.6812 0
M  V30 43 Pb -0.4330 -4.6895 -2.9529 0
M  V30 44 Pb 0.9382 -4.6048 -2.9020 0
M  V30 45 Pb 0.9204 -3.3881 -3.6391 0
M  V30 46 Ag -0.9539 -6.9847 1.7828 0
M  V30 47 Fe -1.0832 -6.1929 -0.4499 0
M  V30 48 Ag -0.8678 -5.1723 -2.5809 0
M  V30 49 Ag -5.1757 1.0183 -0.5669 0
M  V30 50 Fe -4.3340 -1.0729 0.1186 0
M  V30 51 Ag -2.9279 -2.5066 1.3528 0
M  V30 52 Ag -3.0665 1.1618 -4.7941 0
M  V30 53 Fe -2.1261 -0.9715 -4.3424 0
M  V30 54 Ag -1.1147 -3.0702 -3.8813 0
M  V30 55 Ag 3.1984 -1.6033 4.7276 0
M  V30 56 Fe 2.2603 -3.7738 4.5252 0
M  V30 57 Ag 1.2481 -5.8954 4.2004 0
M  V30 58 Ag 2.0780 5.1108 -2.7373 0
M  V30 59 Fe 1.3798 5.2805 -0.4791 0
M  V30 60 Ag 0.6271 5.1970 1.7663 0
M  V30 61 Ag 1.3237 -6.8673 1.8674 0
M  V30 62 Fe 1.5424 -6.0456 -0.3490 0
M  V30 63 Ag 1.3935 -5.0385 -2.4936 0
M  V30 64 Ba 1.9455 0.6134 4.9060 0
M  V30 65 Ga 0.9997 1.7108 4.5806 0
M  V30 66 Ba 0.0675 2.8146 4.2382 0
M  V30 67 Ba -1.1478 -5.9720 4.0883 0
M  V30 68 Ga -1.6543 -4.5992 3.9037 0
M  V30 69 Ba -2.0799 -3.2150 3.6232 0
M  V30 70 Ba 3.7420 1.6665 3.6541 0
M  V30 71 Ga 2.8468 2.7946 3.3723 0
M  V30 72 Ba 1.9154 3.8951 3.0986 0
M  V30 73 Ba -4.5190 1.2499 1.5228 0
M  V30 74 Ga -3.7640 0.0645 2.0123 0
M  V30 75 Ba -3.0939 -1.1320 2.5907 0
M  V30 76 Ba 4.7085 -0.5273 3.0877 0
M  V30 77 Ga 4.6024 -0.7255 1.6276 0
M  V30 78 Ba 4.3287 -0.8721 0.1835 0
M  V30 79 Ba -1.5283 4.4154 2.8064 0
M  V30 80 Ga -2.7181 4.0047 2.0229 0
M  V30 81 Ba -3.9618 3.6759 1.2859 0
M  V30 82 Ba 2.9544 -0.9455 -2.1798 0
M  V30 83 Ga 2.2243 -1.9138 -3.0246 0
M  V30 84 Ba 1.4617 -2.8986 -3.8200 0
M  V30 85 Ba 0.8351 5.0936 -4.7420 0
M  V30 86 Ga -0.5864 4.8333 -5.0111 0
M  V30 87 Ba -1.9835 4.4349 -5.2347 0
M  V30 88 Ba 3.2346 2.9314 -3.3890 0
M  V30 89 Ga 3.3224 1.7816 -2.4601 0
M  V30 90 Ba 3.5406 0.6329 -1.5519 0
M  V30 91 Ba -3.8886 3.5555 -3.9822 0
M  V30 92 Ga -4.3526 3.4941 -2.5794 0
M  V30 93 Ba -4.8448 3.4646 -1.1853 0
M  V30 94 Ba 2.3360 -1.1029 1.1154 0
M  V30 95 Ga 1.2103 -1.5962 1.9332 0
M  V30 96 Ba 0.0910 -2.0881 2.7605 0
M  V30 97 Ba 1.5852 2.9094 -5.3530 0
M  V30 98 Ga 0.1891 2.5425 -5.6620 0
M  V30 99 Ba -1.2436 2.2547 -5.8715 0
M  V30 END ATOM
M  V30 BEGIN BOND
M  V30 1 1 1 2
M  V30 2 1 1 3
M  V30 3 1 1 4
M  V30 4 1 1 5
M  V30 5 1 6 7
M  V30 6 1 6 8
M  V30 7 1 6 9
M  V30 8 1 6 10
M  V30 9 1 11 12
M  V30 10 1 11 13
M  V30 11 1 11 14
M  V30 12 1 11 15
M  V30 13 1 16 17
M  V30 14 1 16 18
M  V30 15 1 16 19
M  V30 16 1 16 20
M  V30 17 1 21 22
M  V30 18 1 21 23
M  V30 19 1 21 24
M  V30 20 1 21 25
M  V30 21 1 26 27
M  V30 22 1 26 28
M  V30 23 1 26 29
M  V30 24 1 26 30
M  V30 25 1 31 32
M  V30 26 1 31 33
M  V30 27 1 31 34
M  V30 28 1 31 35
M  V30 29 1 36 37
M  V30 30 1 36 38
M  V30 31 1 36 39
M  V30 32 1 36 40
M  V30 33 1 41 42
M  V30 34 1 41 43
M  V30 35 1 41 44
M  V30 36 1 41 45
M  V30 37 1 46 47
M  V30 38 1 47 48
M  V30 39 1 49 50
M  V30 40 1 50 51
M  V30 41 1 52 53
M  V30 42 1 53 54
M  V30 43 1 55 56
M  V30 44 1 56 57
M  V30 45 1 58 59
M  V30 46 1 59 60
M  V30 47 1 61 62
M  V30 48 1 62 63
M  V30 49 1 64 65
M  V30 50 1 65 66
M  V30 51 1 67 68
M  V30 52 1 68 69
M  V30 53 1 70 71
M  V30 54 1 71 72
M  V30 55 1 73 74
M  V30 56 1 74 75
M  V30 57 1 76 77
M  V30 58 1 77 78
M  V30 59 1 79 80
M  V30 60 1 80 81
M  V30 61 1 82 83
M  V30 62 1 83 84
M  V30 63 1 85 86
M  V30 64 1 86 87
M  V30 65 1 88 89
M  V30 66 1 89 90
M  V30 67 1 91 92
M  V30 68 1 92 93
M  V30 69 1 94 95
M  V30 70 1 95 96
M  V30 71 1 97 98
M  V30 72 1 98 99
M  V30 73 1 2 58
M  V30 74 1 3 88
M  V30 75 1 4 97
M  V30 76 1 5 85
M  V30 77 1 7 76
M  V30 78 1 8 64
M  V30 79 1 9 55
M  V30 80 1 10 70
M  V30 81 1 12 60
M  V30 82 1 13 72
M  V30 83 1 14 66
M  V30 84 1 15 79
M  V30 85 1 17 82
M  V30 86 1 18 90
M  V30 87 1 19 78
M  V30 88 1 20 94
M  V30 89 1 22 52
M  V30 90 1 23 99
M  V30 91 1 24 87
M  V30 92 1 25 91
M  V30 93 1 27 57
M  V30 94 1 28 67
M  V30 95 1 29 61
M  V30 96 1 30 46
M  V30 97 1 32 73
M  V30 98 1 33 49
M  V30 99 1 34 81
M  V30 100 1 35 93
M  V30 101 1 37 75
M  V30 102 1 38 96
M  V30 103 1 39 51
M  V30 104 1 40 69
M  V30 105 1 42 54
M  V30 106 1 43 48
M  V30 107 1 44 63
M  V30 108 1 45 84
M  V30 END BOND
M  V30 END CTAB
M  END

$$$$
