
     RDKit          3D

  0  0  0  0  0  0  0  0  0  0999 V3000
M  V30 BEGIN CTAB
M  V30 COUNTS 99 108 0 0 0
M  V30 BEGIN ATOM
M  V30 1 Pd -6.6489 4.7926 -0.5289 0
M  V30 2 Pb -6.6301 4.1538 -1.2883 0
M  V30 3 Pb -5.9463 5.3557 -0.9734 0
M  V30 4 Pb -7.3174 4.1947 -0.0800 0
M  V30 5 Pb -6.5872 5.3093 0.3210 0
M  V30 6 Pd 5.6505 -1.3478 4.7185 0
M  V30 7 Pb 6.3948 -1.5654 4.0857 0
M  V30 8 Pb 5.5966 -0.4181 4.3654 0
M  V30 9 Pb 5.5844 -2.3236 4.9512 0
M  V30 10 Pb 4.8713 -1.1754 5.3166 0
M  V30 11 Pd -5.4853 2.0472 3.0960 0
M  V30 12 Pb -4.5252 2.2669 3.2360 0
M  V30 13 Pb -5.2775 1.0725 2.9542 0
M  V30 14 Pb -6.4334 1.9192 2.8158 0
M  V30 15 Pb -5.6830 3.0248 3.2033 0
M  V30 16 Pd -1.5733 3.8740 -2.1950 0
M  V30 17 Pb -2.1827 4.6697 -2.2487 0
M  V30 18 Pb -1.4070 4.0361 -1.2258 0
M  V30 19 Pb -1.7600 3.6239 -3.1462 0
M  V30 20 Pb -1.0184 3.0528 -2.0915 0
M  V30 21 Pd 3.8162 1.5711 -1.9105 0
M  V30 22 Pb 4.7940 1.4102 -2.0113 0
M  V30 23 Pb 3.6772 1.4920 -2.8954 0
M  V30 24 Pb 3.9760 1.7328 -0.9375 0
M  V30 25 Pb 2.8257 1.5320 -1.7901 0
M  V30 26 Pd 5.8461 -2.9392 -0.5001 0
M  V30 27 Pb 6.4929 -2.8297 0.2581 0
M  V30 28 Pb 5.1952 -3.0437 -1.2541 0
M  V30 29 Pb 6.2069 -2.0870 -0.8923 0
M  V30 30 Pb 5.5221 -3.8252 -0.1517 0
M  V30 31 Pd 2.2302 -5.3579 3.0547 0
M  V30 32 Pb 3.0341 -5.2407 3.6548 0
M  V30 33 Pb 1.4250 -5.4462 2.4678 0
M  V30 34 Pb 2.8424 -5.6711 2.3270 0
M  V30 35 Pb 1.6640 -4.9689 3.7775 0
M  V30 36 Pd -0.1100 -0.4668 -4.8670 0
M  V30 37 Pb -0.7088 0.3058 -5.0938 0
M  V30 38 Pb 0.5148 -1.2120 -4.6324 0
M  V30 39 Pb -0.8928 -1.0617 -4.6763 0
M  V30 40 Pb 0.6907 0.0844 -5.0916 0
M  V30 41 Pd -3.7271 -2.0028 -0.7760 0
M  V30 42 Pb -4.2664 -1.2686 -1.1811 0
M  V30 43 Pb -4.0223 -1.7772 0.1616 0
M  V30 44 Pb -3.1952 -2.7762 -0.4266 0
M  V30 45 Pb -3.4573 -2.2405 -1.7100 0
M  V30 46 Ag 5.4762 0.2319 4.0194 0
M  V30 47 Fe 4.8232 1.1381 1.9264 0
M  V30 48 Ag 4.1563 1.8824 -0.2255 0
M  V30 49 Ag -6.5640 3.5784 -1.7528 0
M  V30 50 Fe -5.6352 1.3989 -1.7511 0
M  V30 51 Ag -4.6487 -0.7467 -1.5560 0
M  V30 52 Ag -3.8315 2.5343 3.2009 0
M  V30 53 Fe -2.3860 3.3483 1.5108 0
M  V30 54 Ag -1.3133 4.0378 -0.4853 0
M  V30 55 Ag 0.8052 -5.4952 2.0476 0
M  V30 56 Fe -0.9932 -4.4197 0.9272 0
M  V30 57 Ag -2.8053 -3.3788 -0.2037 0
M  V30 58 Ag 4.2216 -1.2014 5.6762 0
M  V30 59 Fe 2.4337 -2.7102 5.3786 0
M  V30 60 Ag 1.3961 -4.5492 4.3286 0
M  V30 61 Ag 4.6934 -3.1562 -1.8023 0
M  V30 62 Fe 2.8536 -2.4482 -3.1291 0
M  V30 63 Ag 1.0144 -1.7447 -4.4593 0
M  V30 64 Ba 3.5476 1.4751 -3.6319 0
M  V30 65 Ga 2.4402 0.9709 -4.4601 0
M  V30 66 Ba 1.3174 0.4558 -5.2605 0
M  V30 67 Ba -6.5195 5.5659 1.0192 0
M  V30 68 Ga -6.1761 4.7359 2.1890 0
M  V30 69 Ba -5.8248 3.7634 3.2414 0
M  V30 70 Ba -1.9010 3.3788 -3.8424 0
M  V30 71 Ga -1.5226 2.1469 -4.5672 0
M  V30 72 Ba -1.1300 0.9057 -5.2682 0
M  V30 73 Ba 5.4953 -3.0631 5.0811 0
M  V30 74 Ga 4.5541 -4.1023 4.5893 0
M  V30 75 Ba 3.6312 -5.1676 4.1190 0
M  V30 76 Ba 5.2844 -4.5168 0.0385 0
M  V30 77 Ga 4.3031 -5.1713 0.9323 0
M  V30 78 Ba 3.3411 -5.8805 1.8052 0
M  V30 79 Ba 6.9367 -1.7691 3.6071 0
M  V30 80 Ga 6.9592 -2.2407 2.2069 0
M  V30 81 Ba 6.9942 -2.7139 0.8076 0
M  V30 82 Ba -7.7818 3.7202 0.2748 0
M  V30 83 Ga -7.5370 2.7944 1.3971 0
M  V30 84 Ba -7.1188 1.9325 2.5185 0
M  V30 85 Ba -1.4546 -1.5478 -4.5622 0
M  V30 86 Ga -2.3596 -1.9548 -3.4687 0
M  V30 87 Ba -3.2957 -2.4130 -2.4227 0
M  V30 88 Ba -5.1273 0.3358 2.8716 0
M  V30 89 Ga -4.6774 -0.6180 1.8274 0
M  V30 90 Ba -4.2367 -1.6728 0.8812 0
M  V30 91 Ba -0.6419 2.4230 -1.9539 0
M  V30 92 Ga 0.7545 1.9654 -1.8581 0
M  V30 93 Ba 2.0963 1.3737 -1.7261 0
M  V30 94 Ba 5.5032 1.1781 -2.0403 0
M  V30 95 Ga 6.0407 -0.1325 -1.6224 0
M  V30 96 Ba 6.5133 -1.4623 -1.1863 0
M  V30 97 Ba -5.4138 5.7620 -1.3202 0
M  V30 98 Ga -4.0334 5.5083 -1.7917 0
M  V30 99 Ba -2.6527 5.2588 -2.2646 0
M  V30 END ATOM
M  V30 BEGIN BOND
M  V30 1 1 1 2
M  V30 2 1 1 3
M  V30 3 1 1 4
M  V30 4 1 1 5
M  V30 5 1 6 7
M  V30 6 1 6 8
M  V30 7 1 6 9
M  V30 8 1 6 10
M  V30 9 1 11 12
M  V30 10 1 11 13
M  V30 11 1 11 14
M  V30 12 1 11 15
M  V30 13 1 16 17
M  V30 14 1 16 18
M  V30 15 1 16 19
M  V30 16 1 16 20
M  V30 17 1 21 22
M  V30 18 1 21 23
M  V30 19 1 21 24
M  V30 20 1 21 25
M  V30 21 1 26 27
M  V30 22 1 26 28
M  V30 23 1 26 29
M  V30 24 1 26 30
M  V30 25 1 31 32
M  V30 26 1 31 33
M  V30 27 1 31 34
M  V30 28 1 31 35
M  V30 29 1 36 37
M  V30 30 1 36 38
M  V30 31 1 36 39
M  V30 32 1 36 40
M  V30 33 1 41 42
M  V30 34 1 41 43
M  V30 35 1 41 44
M  V30 36 1 41 45
M  V30 37 1 46 47
M  V30 38 1 47 48
M  V30 39 1 49 50
M  V30 40 1 50 51
M  V30 41 1 52 53
M  V30 42 1 53 54
M  V30 43 1 55 56
M  V30 44 1 56 57
M  V30 45 1 58 59
M  V30 46 1 59 60
M  V30 47 1 61 62
M  V30 48 1 62 63
M  V30 49 1 64 65
M  V30 50 1 65 66
M  V30 51 1 67 68
M  V30 52 1 68 69
M  V30 53 1 70 71
M  V30 54 1 71 72
M  V30 55 1 73 74
M  V30 56 1 74 75
M  V30 57 1 76 77
M  V30 58 1 77 78
M  V30 59 1 79 80
M  V30 60 1 80 81
M  V30 61 1 82 83
M  V30 62 1 83 84
M  V30 63 1 85 86
M  V30 64 1 86 87
M  V30 65 1 88 89
M  V30 66 1 89 90
M  V30 67 1 91 92
M  V30 68 1 92 93
M  V30 69 1 94 95
M  V30 70 1 95 96
M  V30 71 1 97 98
M  V30 72 1 98 99
M  V30 73 1 2 49
M  V30 74 1 3 97
M  V30 75 1 4 82
M  V30 76 1 5 67
M  V30 77 1 7 79
M  V30 78 1 8 46
M  V30 79 1 9 73
M  V30 80 1 10 58
M  V30 81 1 12 52
M  V30 82 1 13 88
M  V30 83 1 14 84
M  V30 84 1 15 69
M  V30 85 1 17 99
M  V30 86 1 18 54
M  V30 87 1 19 70
M  V30 88 1 20 91
M  V30 89 1 22 94
M  V30 90 1 23 64
M  V30 91 1 24 48
M  V30 92 1 25 93
M  V30 93 1 27 81
M  V30 94 1 28 61
M  V30 95 1 29 96
M  V30 96 1 30 76
M  V30 97 1 32 75
M  V30 98 1 33 55
M  V30 99 1 34 78
M  V30 100 1 35 60
M  V30 101 1 37 72
M  V30 102 1 38 63
M  V30 103 1 39 85
M  V30 104 1 40 66
M  V30 105 1 42 51
M  V30 106 1 43 90
M  V30 107 1 44 57
M  V30 108 1 45 87
M  V30 END BOND
M  V30 END CTAB
M  END

$$$$
