
     RDKit          3D

  0  0  0  0  0  0  0  0  0  0999 V3000
M  V30 BEGIN CTAB
M  V30 COUNTS 99 108 0 0 0
M  V30 BEGIN ATOM
M  V30 1 Pd -10.1284 4.3114 0.7153 0
M  V30 2 Pb -9.9628 4.7833 1.5775 0
M  V30 3 Pb -10.3262 3.8582 -0.1483 0
M  V30 4 Pb -9.8209 5.1425 0.2354 0
M  V30 5 Pb -10.1996 3.4152 1.1761 0
M  V30 6 Pd 7.4461 -7.2274 -0.2568 0
M  V30 7 Pb 8.3386 -6.7823 -0.2005 0
M  V30 8 Pb 7.4008 -6.8968 -1.1992 0
M  V30 9 Pb 6.4811 -7.5304 -0.2852 0
M  V30 10 Pb 7.4887 -7.5192 0.6943 0
M  V30 11 Pd -1.9366 -0.1533 -1.8483 0
M  V30 12 Pb -1.1522 0.4124 -2.1073 0
M  V30 13 Pb -1.3462 -0.9557 -1.7478 0
M  V30 14 Pb -2.5195 0.6443 -2.0148 0
M  V30 15 Pb -2.7141 -0.7365 -1.6012 0
M  V30 16 Pd 2.3161 -5.7209 1.8911 0
M  V30 17 Pb 2.7826 -6.1507 2.6586 0
M  V30 18 Pb 1.9044 -5.0537 2.5111 0
M  V30 19 Pb 1.8845 -5.2766 1.1049 0
M  V30 20 Pb 2.7791 -6.3785 1.2722 0
M  V30 21 Pd -5.1045 6.6155 0.1940 0
M  V30 22 Pb -4.9071 6.0084 -0.5754 0
M  V30 23 Pb -6.0534 6.7477 -0.1382 0
M  V30 24 Pb -4.1888 6.4500 0.5583 0
M  V30 25 Pb -5.3499 7.1092 1.0239 0
M  V30 26 Pd -0.2097 1.5062 3.3716 0
M  V30 27 Pb 0.7557 1.7137 3.2101 0
M  V30 28 Pb -1.1734 1.2924 3.5348 0
M  V30 29 Pb -0.4385 2.4300 3.0632 0
M  V30 30 Pb 0.0156 0.5794 3.6712 0
M  V30 31 Pd 5.5940 2.2665 -1.6608 0
M  V30 32 Pb 4.6416 2.2945 -1.9673 0
M  V30 33 Pb 6.5547 2.2484 -1.3758 0
M  V30 34 Pb 5.8971 2.1256 -2.6024 0
M  V30 35 Pb 5.2909 2.3631 -0.7126 0
M  V30 36 Pd -7.1508 -0.5931 0.6689 0
M  V30 37 Pb -7.9206 -0.0849 1.0983 0
M  V30 38 Pb -6.4099 -1.1030 0.2288 0
M  V30 39 Pb -6.5800 -0.4304 1.4735 0
M  V30 40 Pb -7.6994 -0.6905 -0.1555 0
M  V30 41 Pd 9.1767 -0.9786 -3.1233 0
M  V30 42 Pb 9.3709 -0.1832 -2.5506 0
M  V30 43 Pb 9.6770 -1.5903 -2.5093 0
M  V30 44 Pb 8.6450 -0.3864 -3.7277 0
M  V30 45 Pb 8.8818 -1.7984 -3.6107 0
M  V30 46 Ag -10.4119 3.4064 -0.7301 0
M  V30 47 Fe -9.5042 1.2844 -1.2025 0
M  V30 48 Ag -8.1479 -0.5835 -0.7349 0
M  V30 49 Ag -3.5146 6.3025 0.8503 0
M  V30 50 Fe -2.0450 4.7189 1.8367 0
M  V30 51 Ag -0.5859 3.1253 2.8223 0
M  V30 52 Ag 1.4739 1.8887 3.0806 0
M  V30 53 Fe 3.2734 2.1545 1.5529 0
M  V30 54 Ag 5.0494 2.4093 -0.0039 0
M  V30 55 Ag 7.3599 -7.6756 1.4078 0
M  V30 56 Fe 5.4452 -7.2742 2.7234 0
M  V30 57 Ag 3.2585 -6.4865 3.1181 0
M  V30 58 Ag 1.6247 -4.5457 2.9862 0
M  V30 59 Fe 0.8897 -2.3328 3.4352 0
M  V30 60 Ag 0.1525 -0.1229 3.8955 0
M  V30 61 Ag -0.5837 0.8558 -2.3182 0
M  V30 62 Fe 1.6841 1.5602 -2.2347 0
M  V30 63 Ag 3.9326 2.3284 -2.2124 0
M  V30 64 Ag 7.4203 -6.5848 -1.8805 0
M  V30 65 Fe 7.9844 -4.5871 -3.0314 0
M  V30 66 Ag 8.6314 -2.4586 -3.8584 0
M  V30 67 Ag -0.9238 -1.5761 -1.7135 0
M  V30 68 Fe 0.3216 -3.2369 -0.5574 0
M  V30 69 Ag 1.5888 -4.9474 0.4983 0
M  V30 70 Ag 8.9403 -6.3363 -0.2086 0
M  V30 71 Fe 9.6298 -4.2342 -1.0719 0
M  V30 72 Ag 9.9972 -2.1140 -2.0770 0
M  V30 73 Ag -9.7338 5.2164 2.1365 0
M  V30 74 Fe -7.7879 6.5238 2.3852 0
M  V30 75 Ag -5.6960 7.3171 1.6454 0
M  V30 76 Ag -2.9080 1.2637 -2.1915 0
M  V30 77 Fe -3.8469 3.3804 -1.6572 0
M  V30 78 Ag -4.7835 5.4941 -1.1074 0
M  V30 79 Ag -1.8861 1.0976 3.6669 0
M  V30 80 Fe -4.0187 0.4130 2.8762 0
M  V30 81 Ag -6.1427 -0.2698 2.0611 0
M  V30 82 Ba -9.5124 5.7396 -0.1177 0
M  V30 83 Ga -8.1315 6.2890 -0.2332 0
M  V30 84 Ba -6.7678 6.8732 -0.3778 0
M  V30 85 Ba 7.2869 2.2306 -1.2045 0
M  V30 86 Ga 8.3919 1.3470 -1.6262 0
M  V30 87 Ba 9.4320 0.4127 -2.1003 0
M  V30 88 Ba -3.2509 -1.2344 -1.4263 0
M  V30 89 Ga -4.5669 -1.3134 -0.7595 0
M  V30 90 Ba -5.8824 -1.5117 -0.1164 0
M  V30 91 Ba 5.7459 -7.7311 -0.3022 0
M  V30 92 Ga 4.4513 -7.2728 0.2816 0
M  V30 93 Ba 3.1101 -6.8927 0.8134 0
M  V30 94 Ba 6.1509 1.9831 -3.2927 0
M  V30 95 Ga 7.1831 1.0444 -3.7675 0
M  V30 96 Ba 8.2294 0.0775 -4.1443 0
M  V30 97 Ba -10.1850 2.7295 1.5074 0
M  V30 98 Ga -9.3264 1.5094 1.4341 0
M  V30 99 Ba -8.5261 0.2485 1.4310 0
M  V30 END ATOM
M  V30 BEGIN BOND
M  V30 1 1 1 2
M  V30 2 1 1 3
M  V30 3 1 1 4
M  V30 4 1 1 5
M  V30 5 1 6 7
M  V30 6 1 6 8
M  V30 7 1 6 9
M  V30 8 1 6 10
M  V30 9 1 11 12
M  V30 10 1 11 13
M  V30 11 1 11 14
M  V30 12 1 11 15
M  V30 13 1 16 17
M  V30 14 1 16 18
M  V30 15 1 16 19
M  V30 16 1 16 20
M  V30 17 1 21 22
M  V30 18 1 21 23
M  V30 19 1 21 24
M  V30 20 1 21 25
M  V30 21 1 26 27
M  V30 22 1 26 28
M  V30 23 1 26 29
M  V30 24 1 26 30
M  V30 25 1 31 32
M  V30 26 1 31 33
M  V30 27 1 31 34
M  V30 28 1 31 35
M  V30 29 1 36 37
M  V30 30 1 36 38
M  V30 31 1 36 39
M  V30 32 1 36 40
M  V30 33 1 41 42
M  V30 34 1 41 43
M  V30 35 1 41 44
M  V30 36 1 41 45
M  V30 37 1 46 47
M  V30 38 1 47 48
M  V30 39 1 49 50
M  V30 40 1 50 51
M  V30 41 1 52 53
M  V30 42 1 53 54
M  V30 43 1 55 56
M  V30 44 1 56 57
M  V30 45 1 58 59
M  V30 46 1 59 60
M  V30 47 1 61 62
M  V30 48 1 62 63
M  V30 49 1 64 65
M  V30 50 1 65 66
M  V30 51 1 67 68
M  V30 52 1 68 69
M  V30 53 1 70 71
M  V30 54 1 71 72
M  V30 55 1 73 74
M  V30 56 1 74 75
M  V30 57 1 76 77
M  V30 58 1 77 78
M  V30 59 1 79 80
M  V30 60 1 80 81
M  V30 61 1 82 83
M  V30 62 1 83 84
M  V30 63 1 85 86
M  V30 64 1 86 87
M  V30 65 1 88 89
M  V30 66 1 89 90
M  V30 67 1 91 92
M  V30 68 1 92 93
M  V30 69 1 94 95
M  V30 70 1 95 96
M  V30 71 1 97 98
M  V30 72 1 98 99
M  V30 73 1 2 73
M  V30 74 1 3 46
M  V30 75 1 4 82
M  V30 76 1 5 97
M  V30 77 1 7 70
M  V30 78 1 8 64
M  V30 79 1 9 91
M  V30 80 1 10 55
M  V30 81 1 12 61
M  V30 82 1 13 67
M  V30 83 1 14 76
M  V30 84 1 15 88
M  V30 85 1 17 57
M  V30 86 1 18 58
M  V30 87 1 19 69
M  V30 88 1 20 93
M  V30 89 1 22 78
M  V30 90 1 23 84
M  V30 91 1 24 49
M  V30 92 1 25 75
M  V30 93 1 27 52
M  V30 94 1 28 79
M  V30 95 1 29 51
M  V30 96 1 30 60
M  V30 97 1 32 63
M  V30 98 1 33 85
M  V30 99 1 34 94
M  V30 100 1 35 54
M  V30 101 1 37 99
M  V30 102 1 38 90
M  V30 103 1 39 81
M  V30 104 1 40 48
M  V30 105 1 42 87
M  V30 106 1 43 72
M  V30 107 1 44 96
M  V30 108 1 45 66
M  V30 END BOND
M  V30 END CTAB
M  END

$$$$
