
     RDKit          3D

  0  0  0  0  0  0  0  0  0  0999 V3000
M  V30 BEGIN CTAB
M  V30 COUNTS 99 108 0 0 0
M  V30 BEGIN ATOM
M  V30 1 Pd -1.0559 0.3005 -4.9378 0
M  V30 2 Pb -0.9617 -0.6487 -5.2499 0
M  V30 3 Pb -1.7732 0.4788 -5.6150 0
M  V30 4 Pb -1.1495 1.2452 -4.6239 0
M  V30 5 Pb -0.3294 0.1529 -4.2662 0
M  V30 6 Pd -5.3092 3.2005 -4.5161 0
M  V30 7 Pb -6.2456 2.8987 -4.6956 0
M  V30 8 Pb -4.3694 3.4682 -4.3097 0
M  V30 9 Pb -4.9798 2.7563 -5.3498 0
M  V30 10 Pb -5.6204 3.5404 -3.6286 0
M  V30 11 Pd -0.3278 -2.0427 4.5768 0
M  V30 12 Pb 0.2489 -2.8499 4.7233 0
M  V30 13 Pb -0.8340 -1.1946 4.3987 0
M  V30 14 Pb 0.2313 -1.5351 5.2259 0
M  V30 15 Pb -0.8922 -2.5693 3.9404 0
M  V30 16 Pd 6.1758 1.4902 5.1104 0
M  V30 17 Pb 5.9348 2.4635 5.0796 0
M  V30 18 Pb 6.3669 0.5054 5.0862 0
M  V30 19 Pb 6.9256 1.6844 4.4821 0
M  V30 20 Pb 5.3989 1.3021 5.7027 0
M  V30 21 Pd -1.6395 -4.4522 -2.5849 0
M  V30 22 Pb -0.6913 -4.5731 -2.2949 0
M  V30 23 Pb -2.5976 -4.3738 -2.8511 0
M  V30 24 Pb -1.9231 -4.5763 -1.6350 0
M  V30 25 Pb -1.3576 -4.2310 -3.5196 0
M  V30 26 Pd -7.2244 0.0598 -1.6621 0
M  V30 27 Pb -7.8388 0.4098 -2.3661 0
M  V30 28 Pb -6.5099 -0.2826 -1.0499 0
M  V30 29 Pb -7.1482 0.9899 -1.3030 0
M  V30 30 Pb -7.2116 -0.8387 -2.0895 0
M  V30 31 Pd 4.3141 -3.2363 2.4697 0
M  V30 32 Pb 3.7833 -3.6525 1.7311 0
M  V30 33 Pb 4.7519 -2.6916 1.7577 0
M  V30 34 Pb 3.7892 -3.7390 3.1601 0
M  V30 35 Pb 4.9225 -2.8623 3.1799 0
M  V30 36 Pd -0.1127 1.1126 0.5430 0
M  V30 37 Pb 0.4574 1.9405 0.5416 0
M  V30 38 Pb -0.5472 1.3507 1.4114 0
M  V30 39 Pb 0.3354 0.7988 -0.2961 0
M  V30 40 Pb -0.7788 0.3678 0.5162 0
M  V30 41 Pd 5.1323 3.6517 1.0163 0
M  V30 42 Pb 6.0835 3.4622 1.2540 0
M  V30 43 Pb 5.0755 4.2429 1.8190 0
M  V30 44 Pb 5.2072 2.9298 0.3364 0
M  V30 45 Pb 4.1648 3.8106 0.8075 0
M  V30 46 Ag 0.6629 -1.1494 5.6959 0
M  V30 47 Fe 2.7044 0.0130 6.0004 0
M  V30 48 Ag 4.7925 1.1272 6.0978 0
M  V30 49 Ag 4.9800 -2.2578 1.1929 0
M  V30 50 Fe 5.2043 -0.0319 0.4096 0
M  V30 51 Ag 5.3160 2.2934 -0.0340 0
M  V30 52 Ag -3.3248 -4.3121 -3.0121 0
M  V30 53 Fe -5.2887 -3.0049 -2.7849 0
M  V30 54 Ag -7.0791 -1.4989 -2.4076 0
M  V30 55 Ag -5.9262 -0.5778 -0.6792 0
M  V30 56 Fe -3.6445 -0.4070 -0.0373 0
M  V30 57 Ag -1.3598 -0.1060 0.5430 0
M  V30 58 Ag 0.0025 -4.6972 -2.0414 0
M  V30 59 Fe 1.7049 -4.2980 -0.4344 0
M  V30 60 Ag 3.4622 -3.9617 1.1272 0
M  V30 61 Ag -1.2967 -2.9976 3.4755 0
M  V30 62 Fe -1.7353 -3.8229 1.2923 0
M  V30 63 Ag -2.1248 -4.6095 -0.9144 0
M  V30 64 Ba 0.8144 2.6045 0.4975 0
M  V30 65 Ga 2.1562 3.2201 0.5979 0
M  V30 66 Ba 3.4388 3.9545 0.6720 0
M  V30 67 Ba -5.8731 3.7024 -2.9412 0
M  V30 68 Ga -6.4782 2.7765 -1.9655 0
M  V30 69 Ba -7.0581 1.7126 -1.1246 0
M  V30 70 Ba -2.3072 0.6546 -6.1154 0
M  V30 71 Ga -3.5114 1.5087 -6.0566 0
M  V30 72 Ba -4.7018 2.3752 -5.9338 0
M  V30 73 Ba 7.4333 1.8817 3.9710 0
M  V30 74 Ga 7.1935 2.5804 2.6993 0
M  V30 75 Ba 6.7743 3.2766 1.4734 0
M  V30 76 Ba -1.2404 1.9539 -4.3966 0
M  V30 77 Ga -2.4264 2.8191 -4.2670 0
M  V30 78 Ba -3.6533 3.6289 -4.1614 0
M  V30 79 Ba 0.2276 0.0566 -3.7729 0
M  V30 80 Ga 0.4363 0.3075 -2.3331 0
M  V30 81 Ba 0.7005 0.5373 -0.8989 0
M  V30 82 Ba -6.9490 2.6472 -4.7616 0
M  V30 83 Ga -7.6641 1.6879 -3.9028 0
M  V30 84 Ba -8.2083 0.7166 -2.9389 0
M  V30 85 Ba 0.7148 -3.4335 4.8204 0
M  V30 86 Ga 2.0363 -3.7824 4.2548 0
M  V30 87 Ba 3.3565 -4.0928 3.6642 0
M  V30 88 Ba -0.8796 -1.3615 -5.4802 0
M  V30 89 Ga -1.0179 -2.6944 -4.8554 0
M  V30 90 Ba -1.1618 -4.0182 -4.2129 0
M  V30 91 Ba 5.7435 3.1873 4.9978 0
M  V30 92 Ga 5.3952 3.9556 3.7853 0
M  V30 93 Ba 5.0723 4.5813 2.4872 0
M  V30 94 Ba 6.4826 -0.2392 5.0784 0
M  V30 95 Ga 5.9221 -1.4119 4.3664 0
M  V30 96 Ba 5.4204 -2.6393 3.7046 0
M  V30 97 Ba -1.1486 -0.5201 4.2785 0
M  V30 98 Ga -1.0504 0.4765 3.1904 0
M  V30 99 Ba -0.9095 1.4246 2.0645 0
M  V30 END ATOM
M  V30 BEGIN BOND
M  V30 1 1 1 2
M  V30 2 1 1 3
M  V30 3 1 1 4
M  V30 4 1 1 5
M  V30 5 1 6 7
M  V30 6 1 6 8
M  V30 7 1 6 9
M  V30 8 1 6 10
M  V30 9 1 11 12
M  V30 10 1 11 13
M  V30 11 1 11 14
M  V30 12 1 11 15
M  V30 13 1 16 17
M  V30 14 1 16 18
M  V30 15 1 16 19
M  V30 16 1 16 20
M  V30 17 1 21 22
M  V30 18 1 21 23
M  V30 19 1 21 24
M  V30 20 1 21 25
M  V30 21 1 26 27
M  V30 22 1 26 28
M  V30 23 1 26 29
M  V30 24 1 26 30
M  V30 25 1 31 32
M  V30 26 1 31 33
M  V30 27 1 31 34
M  V30 28 1 31 35
M  V30 29 1 36 37
M  V30 30 1 36 38
M  V30 31 1 36 39
M  V30 32 1 36 40
M  V30 33 1 41 42
M  V30 34 1 41 43
M  V30 35 1 41 44
M  V30 36 1 41 45
M  V30 37 1 46 47
M  V30 38 1 47 48
M  V30 39 1 49 50
M  V30 40 1 50 51
M  V30 41 1 52 53
M  V30 42 1 53 54
M  V30 43 1 55 56
M  V30 44 1 56 57
M  V30 45 1 58 59
M  V30 46 1 59 60
M  V30 47 1 61 62
M  V30 48 1 62 63
M  V30 49 1 64 65
M  V30 50 1 65 66
M  V30 51 1 67 68
M  V30 52 1 68 69
M  V30 53 1 70 71
M  V30 54 1 71 72
M  V30 55 1 73 74
M  V30 56 1 74 75
M  V30 57 1 76 77
M  V30 58 1 77 78
M  V30 59 1 79 80
M  V30 60 1 80 81
M  V30 61 1 82 83
M  V30 62 1 83 84
M  V30 63 1 85 86
M  V30 64 1 86 87
M  V30 65 1 88 89
M  V30 66 1 89 90
M  V30 67 1 91 92
M  V30 68 1 92 93
M  V30 69 1 94 95
M  V30 70 1 95 96
M  V30 71 1 97 98
M  V30 72 1 98 99
M  V30 73 1 2 88
M  V30 74 1 3 70
M  V30 75 1 4 76
M  V30 76 1 5 79
M  V30 77 1 7 82
M  V30 78 1 8 78
M  V30 79 1 9 72
M  V30 80 1 10 67
M  V30 81 1 12 85
M  V30 82 1 13 97
M  V30 83 1 14 46
M  V30 84 1 15 61
M  V30 85 1 17 91
M  V30 86 1 18 94
M  V30 87 1 19 73
M  V30 88 1 20 48
M  V30 89 1 22 58
M  V30 90 1 23 52
M  V30 91 1 24 63
M  V30 92 1 25 90
M  V30 93 1 27 84
M  V30 94 1 28 55
M  V30 95 1 29 69
M  V30 96 1 30 54
M  V30 97 1 32 60
M  V30 98 1 33 49
M  V30 99 1 34 87
M  V30 100 1 35 96
M  V30 101 1 37 64
M  V30 102 1 38 99
M  V30 103 1 39 81
M  V30 104 1 40 57
M  V30 105 1 42 75
M  V30 106 1 43 93
M  V30 107 1 44 51
M  V30 108 1 45 66
M  V30 END BOND
M  V30 END CTAB
M  END

$$$$
