
     RDKit          3D

  0  0  0  0  0  0  0  0  0  0999 V3000
M  V30 BEGIN CTAB
M  V30 COUNTS 99 108 0 0 0
M  V30 BEGIN ATOM
M  V30 1 Pd -2.7940 2.9973 -0.6820 0
M  V30 2 Pb -2.7476 3.3319 -1.6213 0
M  V30 3 Pb -2.8480 2.6255 0.2460 0
M  V30 4 Pb -3.6661 2.5504 -0.8942 0
M  V30 5 Pb -1.9145 3.4536 -0.5212 0
M  V30 6 Pd 1.6292 2.3718 7.6302 0
M  V30 7 Pb 1.7974 1.5849 7.0325 0
M  V30 8 Pb 0.8037 1.9173 8.0042 0
M  V30 9 Pb 2.3280 2.9196 7.1715 0
M  V30 10 Pb 1.4848 3.1201 8.2730 0
M  V30 11 Pd 3.6841 -4.1240 -5.3908 0
M  V30 12 Pb 2.9139 -4.2317 -6.0221 0
M  V30 13 Pb 4.4112 -3.9630 -4.7215 0
M  V30 14 Pb 3.6416 -5.0918 -5.1391 0
M  V30 15 Pb 3.6812 -3.1566 -5.6389 0
M  V30 16 Pd 0.4992 -6.4870 -2.0822 0
M  V30 17 Pb 1.2023 -6.9140 -2.6504 0
M  V30 18 Pb -0.1810 -5.9896 -1.5429 0
M  V30 19 Pb 1.0844 -6.5827 -1.2793 0
M  V30 20 Pb -0.0765 -6.3146 -2.8800 0
M  V30 21 Pd 4.8264 -2.0271 1.7848 0
M  V30 22 Pb 4.2824 -1.8285 2.6025 0
M  V30 23 Pb 5.3199 -2.2386 0.9398 0
M  V30 24 Pb 4.5638 -2.9884 1.8421 0
M  V30 25 Pb 5.0363 -1.0565 1.6862 0
M  V30 26 Pd -4.5249 -1.4064 -3.5662 0
M  V30 27 Pb -4.2081 -1.8369 -2.7210 0
M  V30 28 Pb -4.8132 -1.0159 -4.4416 0
M  V30 29 Pb -4.9338 -0.6484 -3.0525 0
M  V30 30 Pb -4.1062 -2.1723 -4.0537 0
M  V30 31 Pd -1.5910 0.3477 -7.4259 0
M  V30 32 Pb -1.7598 1.2594 -7.0591 0
M  V30 33 Pb -2.5803 0.2021 -7.4405 0
M  V30 34 Pb -0.6042 0.4712 -7.3352 0
M  V30 35 Pb -1.3949 -0.5948 -7.7002 0
M  V30 36 Pd 1.7328 4.7934 2.7024 0
M  V30 37 Pb 2.5425 4.3252 2.3530 0
M  V30 38 Pb 0.9051 5.2439 3.0415 0
M  V30 39 Pb 2.1977 4.8107 3.5931 0
M  V30 40 Pb 1.3132 4.7643 1.7937 0
M  V30 41 Pd -3.5670 3.4285 7.0648 0
M  V30 42 Pb -3.1654 2.6835 7.6140 0
M  V30 43 Pb -3.5607 2.8392 6.2577 0
M  V30 44 Pb -3.6732 4.2118 6.4606 0
M  V30 45 Pb -3.4890 4.0435 7.8459 0
M  V30 46 Ag 1.9131 0.9589 6.6316 0
M  V30 47 Fe 2.9156 -0.3142 4.8921 0
M  V30 48 Ag 3.8419 -1.7022 3.1987 0
M  V30 49 Ag -2.6951 3.5455 -2.3364 0
M  V30 50 Fe -2.3094 2.8393 -4.5675 0
M  V30 51 Ag -1.8998 1.9036 -6.7080 0
M  V30 52 Ag 5.1426 -0.3209 1.6016 0
M  V30 53 Fe 4.2044 1.8457 1.8373 0
M  V30 54 Ag 3.1492 3.9516 2.1240 0
M  V30 55 Ag 1.5357 -6.5865 -0.6829 0
M  V30 56 Fe 2.9626 -5.2407 0.6514 0
M  V30 57 Ag 4.3300 -3.6986 1.8263 0
M  V30 58 Ag -0.6978 -5.5659 -1.2011 0
M  V30 59 Fe -2.3443 -3.8887 -1.5454 0
M  V30 60 Ag -3.9278 -2.2211 -2.1408 0
M  V30 61 Ag 3.5952 -2.4438 -5.8506 0
M  V30 62 Fe 1.9688 -0.8662 -6.5557 0
M  V30 63 Ag 0.1365 0.4835 -7.2279 0
M  V30 64 Ag 1.2342 3.6468 8.7330 0
M  V30 65 Fe -0.9483 4.4783 9.0275 0
M  V30 66 Ag -3.2139 4.4601 8.3932 0
M  V30 67 Ag 2.3147 -4.2241 -6.4759 0
M  V30 68 Fe 0.5221 -2.8648 -7.2432 0
M  V30 69 Ag -1.1629 -1.2964 -7.8353 0
M  V30 70 Ag -0.5349 -6.1048 -3.4335 0
M  V30 71 Fe -2.1696 -4.4860 -4.0190 0
M  V30 72 Ag -3.7675 -2.7647 -4.3643 0
M  V30 73 Ag 0.2487 5.5440 3.2518 0
M  V30 74 Fe -1.7263 5.3161 4.5491 0
M  V30 75 Ag -3.5375 4.7656 5.9804 0
M  V30 76 Ag -2.9351 2.3037 0.9194 0
M  V30 77 Fe -3.2232 2.3730 3.2765 0
M  V30 78 Ag -3.5094 2.4264 5.6342 0
M  V30 79 Ag 4.9263 -3.8077 -4.1972 0
M  V30 80 Fe 5.3503 -3.1211 -1.9619 0
M  V30 81 Ag 5.6490 -2.4293 0.2920 0
M  V30 82 Ba 0.1556 1.6081 8.2665 0
M  V30 83 Ga -1.3062 1.8812 8.1308 0
M  V30 84 Ba -2.7674 2.1569 7.9930 0
M  V30 85 Ba 3.5807 -5.8141 -4.9435 0
M  V30 86 Ga 2.6799 -6.5321 -4.0215 0
M  V30 87 Ba 1.7486 -7.1886 -3.0842 0
M  V30 88 Ba 2.7821 3.3990 6.8154 0
M  V30 89 Ga 2.6974 4.0894 5.5098 0
M  V30 90 Ba 2.6317 4.7946 4.2112 0
M  V30 91 Ba -4.3239 2.2293 -1.0697 0
M  V30 92 Ga -4.7675 1.0635 -1.8640 0
M  V30 93 Ba -5.2461 -0.0939 -2.6502 0
M  V30 94 Ba -1.2574 3.8231 -0.5126 0
M  V30 95 Ga -0.1472 4.2573 0.3610 0
M  V30 96 Ba 1.0315 4.7608 1.0975 0
M  V30 97 Ba -4.9971 -0.7639 -5.1249 0
M  V30 98 Ga -4.1903 -0.3156 -6.2767 0
M  V30 99 Ba -3.3244 0.1223 -7.3889 0
M  V30 END ATOM
M  V30 BEGIN BOND
M  V30 1 1 1 2
M  V30 2 1 1 3
M  V30 3 1 1 4
M  V30 4 1 1 5
M  V30 5 1 6 7
M  V30 6 1 6 8
M  V30 7 1 6 9
M  V30 8 1 6 10
M  V30 9 1 11 12
M  V30 10 1 11 13
M  V30 11 1 11 14
M  V30 12 1 11 15
M  V30 13 1 16 17
M  V30 14 1 16 18
M  V30 15 1 16 19
M  V30 16 1 16 20
M  V30 17 1 21 22
M  V30 18 1 21 23
M  V30 19 1 21 24
M  V30 20 1 21 25
M  V30 21 1 26 27
M  V30 22 1 26 28
M  V30 23 1 26 29
M  V30 24 1 26 30
M  V30 25 1 31 32
M  V30 26 1 31 33
M  V30 27 1 31 34
M  V30 28 1 31 35
M  V30 29 1 36 37
M  V30 30 1 36 38
M  V30 31 1 36 39
M  V30 32 1 36 40
M  V30 33 1 41 42
M  V30 34 1 41 43
M  V30 35 1 41 44
M  V30 36 1 41 45
M  V30 37 1 46 47
M  V30 38 1 47 48
M  V30 39 1 49 50
M  V30 40 1 50 51
M  V30 41 1 52 53
M  V30 42 1 53 54
M  V30 43 1 55 56
M  V30 44 1 56 57
M  V30 45 1 58 59
M  V30 46 1 59 60
M  V30 47 1 61 62
M  V30 48 1 62 63
M  V30 49 1 64 65
M  V30 50 1 65 66
M  V30 51 1 67 68
M  V30 52 1 68 69
M  V30 53 1 70 71
M  V30 54 1 71 72
M  V30 55 1 73 74
M  V30 56 1 74 75
M  V30 57 1 76 77
M  V30 58 1 77 78
M  V30 59 1 79 80
M  V30 60 1 80 81
M  V30 61 1 82 83
M  V30 62 1 83 84
M  V30 63 1 85 86
M  V30 64 1 86 87
M  V30 65 1 88 89
M  V30 66 1 89 90
M  V30 67 1 91 92
M  V30 68 1 92 93
M  V30 69 1 94 95
M  V30 70 1 95 96
M  V30 71 1 97 98
M  V30 72 1 98 99
M  V30 73 1 2 49
M  V30 74 1 3 76
M  V30 75 1 4 91
M  V30 76 1 5 94
M  V30 77 1 7 46
M  V30 78 1 8 82
M  V30 79 1 9 88
M  V30 80 1 10 64
M  V30 81 1 12 67
M  V30 82 1 13 79
M  V30 83 1 14 85
M  V30 84 1 15 61
M  V30 85 1 17 87
M  V30 86 1 18 58
M  V30 87 1 19 55
M  V30 88 1 20 70
M  V30 89 1 22 48
M  V30 90 1 23 81
M  V30 91 1 24 57
M  V30 92 1 25 52
M  V30 93 1 27 60
M  V30 94 1 28 97
M  V30 95 1 29 93
M  V30 96 1 30 72
M  V30 97 1 32 51
M  V30 98 1 33 99
M  V30 99 1 34 63
M  V30 100 1 35 69
M  V30 101 1 37 54
M  V30 102 1 38 73
M  V30 103 1 39 90
M  V30 104 1 40 96
M  V30 105 1 42 84
M  V30 106 1 43 78
M  V30 107 1 44 75
M  V30 108 1 45 66
M  V30 END BOND
M  V30 END CTAB
M  END

$$$$
