
     RDKit          3D

  0  0  0  0  0  0  0  0  0  0999 V3000
M  V30 BEGIN CTAB
M  V30 COUNTS 99 108 0 0 0
M  V30 BEGIN ATOM
M  V30 1 Pd -2.7977 -1.9179 1.3523 0
M  V30 2 Pb -2.9060 -2.0999 2.3317 0
M  V30 3 Pb -3.0983 -2.8428 1.1160 0
M  V30 4 Pb -2.6832 -1.7303 0.3749 0
M  V30 5 Pb -2.4090 -1.0250 1.5807 0
M  V30 6 Pd 5.4063 -0.8825 3.8783 0
M  V30 7 Pb 6.1974 -1.1209 3.3285 0
M  V30 8 Pb 5.1587 -1.8586 3.8944 0
M  V30 9 Pb 5.5839 0.0792 3.6813 0
M  V30 10 Pb 4.5686 -0.6003 4.3395 0
M  V30 11 Pd -1.6713 5.3592 -0.4361 0
M  V30 12 Pb -1.3479 4.7133 0.2516 0
M  V30 13 Pb -2.0057 5.9670 -1.1629 0
M  V30 14 Pb -2.5661 4.9416 -0.2729 0
M  V30 15 Pb -0.7510 5.7360 -0.5512 0
M  V30 16 Pd 3.9610 -1.9682 -0.2351 0
M  V30 17 Pb 3.0201 -2.1349 -0.5177 0
M  V30 18 Pb 4.1100 -1.4187 -1.0580 0
M  V30 19 Pb 4.9340 -1.8890 -0.0271 0
M  V30 20 Pb 3.8278 -2.4693 0.6322 0
M  V30 21 Pd -5.6752 0.2125 -2.9816 0
M  V30 22 Pb -4.7919 -0.2126 -2.7735 0
M  V30 23 Pb -5.8071 0.4516 -2.0258 0
M  V30 24 Pb -6.5389 0.6654 -3.1878 0
M  V30 25 Pb -5.4152 0.2881 -3.9533 0
M  V30 26 Pd 0.3064 -5.7566 0.9662 0
M  V30 27 Pb 1.2369 -5.6305 1.3315 0
M  V30 28 Pb 0.1521 -6.3596 1.7374 0
M  V30 29 Pb 0.4223 -5.0583 0.2632 0
M  V30 30 Pb -0.6589 -5.8205 0.7118 0
M  V30 31 Pd 3.2642 3.3706 -1.7798 0
M  V30 32 Pb 3.8167 3.3459 -0.9447 0
M  V30 33 Pb 2.8828 4.2526 -1.4975 0
M  V30 34 Pb 3.6430 2.4964 -2.0946 0
M  V30 35 Pb 2.7091 3.4004 -2.6098 0
M  V30 36 Pd 0.7704 -3.1461 4.6050 0
M  V30 37 Pb 1.6548 -3.3046 4.1498 0
M  V30 38 Pb 0.5697 -4.1251 4.6234 0
M  V30 39 Pb 1.0050 -2.1862 4.7163 0
M  V30 40 Pb -0.1594 -2.9726 4.9225 0
M  V30 41 Pd -3.5669 4.5611 -5.3482 0
M  V30 42 Pb -3.8225 3.6313 -5.6692 0
M  V30 43 Pb -4.5310 4.8137 -5.3534 0
M  V30 44 Pb -3.3392 5.4251 -4.8960 0
M  V30 45 Pb -2.5997 4.3114 -5.3668 0
M  V30 46 Ag -7.0670 1.1427 -3.3943 0
M  V30 47 Fe -6.7409 3.2330 -4.4240 0
M  V30 48 Ag -5.2704 4.8459 -5.3035 0
M  V30 49 Ag -2.0734 -0.3767 1.7551 0
M  V30 50 Fe -1.5944 1.9025 1.2949 0
M  V30 51 Ag -1.1843 4.1749 0.7437 0
M  V30 52 Ag 2.2940 3.4155 -3.2330 0
M  V30 53 Fe 0.2076 3.7738 -4.3071 0
M  V30 54 Ag -1.8735 4.1292 -5.3924 0
M  V30 55 Ag -3.1686 4.5359 -0.0795 0
M  V30 56 Fe -4.5884 2.6973 -0.5692 0
M  V30 57 Ag -5.8178 0.8411 -1.3909 0
M  V30 58 Ag 5.6570 0.7759 3.4191 0
M  V30 59 Fe 4.9881 2.1378 1.5923 0
M  V30 60 Ag 4.2170 3.3347 -0.3087 0
M  V30 61 Ag 4.9850 -2.5881 3.7846 0
M  V30 62 Fe 3.4996 -4.1607 2.7839 0
M  V30 63 Ag 1.8886 -5.5493 1.7107 0
M  V30 64 Ba -2.5860 -1.6091 -0.3607 0
M  V30 65 Ga -3.3748 -1.0571 -1.4816 0
M  V30 66 Ba -4.1170 -0.5162 -2.6391 0
M  V30 67 Ba -2.2204 6.4238 -1.7241 0
M  V30 68 Ga -2.7039 6.2440 -3.1112 0
M  V30 69 Ba -3.1873 6.0430 -4.4954 0
M  V30 70 Ba -3.2578 -3.5463 0.9075 0
M  V30 71 Ga -2.3737 -4.7138 0.7231 0
M  V30 72 Ba -1.3966 -5.8102 0.5745 0
M  V30 73 Ba 0.0686 -6.6743 2.4014 0
M  V30 74 Ga 0.2184 -5.8637 3.6120 0
M  V30 75 Ba 0.4140 -4.8577 4.6600 0
M  V30 76 Ba -2.9604 -2.2105 3.0736 0
M  V30 77 Ga -1.9623 -2.5309 4.1116 0
M  V30 78 Ba -0.8842 -2.8541 5.0648 0
M  V30 79 Ba 6.7002 -1.2858 2.8097 0
M  V30 80 Ga 6.3042 -1.5921 1.4337 0
M  V30 81 Ba 5.6615 -1.8632 0.1454 0
M  V30 82 Ba 4.2453 -0.9901 -1.6592 0
M  V30 83 Ga 4.0669 0.4374 -1.9977 0
M  V30 84 Ba 3.9112 1.8550 -2.3852 0
M  V30 85 Ba -5.1863 0.4598 -4.6589 0
M  V30 86 Ga -4.6042 1.6942 -5.2687 0
M  V30 87 Ba -4.0218 2.9239 -5.8875 0
M  V30 88 Ba 3.9260 -0.3389 4.6180 0
M  V30 89 Ga 2.5689 -0.8860 4.7518 0
M  V30 90 Ba 1.2356 -1.4934 4.8623 0
M  V30 91 Ba 3.8074 -2.8406 1.2950 0
M  V30 92 Ga 2.9834 -3.0632 2.5132 0
M  V30 93 Ba 2.3055 -3.4365 3.7851 0
M  V30 94 Ba -0.0564 6.0130 -0.6204 0
M  V30 95 Ga 1.2687 5.4586 -0.9634 0
M  V30 96 Ba 2.6018 4.9222 -1.3040 0
M  V30 97 Ba 2.3429 -2.3074 -0.7806 0
M  V30 98 Ga 1.3935 -3.3977 -0.5067 0
M  V30 99 Ba 0.4517 -4.4928 -0.2258 0
M  V30 END ATOM
M  V30 BEGIN BOND
M  V30 1 1 1 2
M  V30 2 1 1 3
M  V30 3 1 1 4
M  V30 4 1 1 5
M  V30 5 1 6 7
M  V30 6 1 6 8
M  V30 7 1 6 9
M  V30 8 1 6 10
M  V30 9 1 11 12
M  V30 10 1 11 13
M  V30 11 1 11 14
M  V30 12 1 11 15
M  V30 13 1 16 17
M  V30 14 1 16 18
M  V30 15 1 16 19
M  V30 16 1 16 20
M  V30 17 1 21 22
M  V30 18 1 21 23
M  V30 19 1 21 24
M  V30 20 1 21 25
M  V30 21 1 26 27
M  V30 22 1 26 28
M  V30 23 1 26 29
M  V30 24 1 26 30
M  V30 25 1 31 32
M  V30 26 1 31 33
M  V30 27 1 31 34
M  V30 28 1 31 35
M  V30 29 1 36 37
M  V30 30 1 36 38
M  V30 31 1 36 39
M  V30 32 1 36 40
M  V30 33 1 41 42
M  V30 34 1 41 43
M  V30 35 1 41 44
M  V30 36 1 41 45
M  V30 37 1 46 47
M  V30 38 1 47 48
M  V30 39 1 49 50
M  V30 40 1 50 51
M  V30 41 1 52 53
M  V30 42 1 53 54
M  V30 43 1 55 56
M  V30 44 1 56 57
M  V30 45 1 58 59
M  V30 46 1 59 60
M  V30 47 1 61 62
M  V30 48 1 62 63
M  V30 49 1 64 65
M  V30 50 1 65 66
M  V30 51 1 67 68
M  V30 52 1 68 69
M  V30 53 1 70 71
M  V30 54 1 71 72
M  V30 55 1 73 74
M  V30 56 1 74 75
M  V30 57 1 76 77
M  V30 58 1 77 78
M  V30 59 1 79 80
M  V30 60 1 80 81
M  V30 61 1 82 83
M  V30 62 1 83 84
M  V30 63 1 85 86
M  V30 64 1 86 87
M  V30 65 1 88 89
M  V30 66 1 89 90
M  V30 67 1 91 92
M  V30 68 1 92 93
M  V30 69 1 94 95
M  V30 70 1 95 96
M  V30 71 1 97 98
M  V30 72 1 98 99
M  V30 73 1 2 76
M  V30 74 1 3 70
M  V30 75 1 4 64
M  V30 76 1 5 49
M  V30 77 1 7 79
M  V30 78 1 8 61
M  V30 79 1 9 58
M  V30 80 1 10 88
M  V30 81 1 12 51
M  V30 82 1 13 67
M  V30 83 1 14 55
M  V30 84 1 15 94
M  V30 85 1 17 97
M  V30 86 1 18 82
M  V30 87 1 19 81
M  V30 88 1 20 91
M  V30 89 1 22 66
M  V30 90 1 23 57
M  V30 91 1 24 46
M  V30 92 1 25 85
M  V30 93 1 27 63
M  V30 94 1 28 73
M  V30 95 1 29 99
M  V30 96 1 30 72
M  V30 97 1 32 60
M  V30 98 1 33 96
M  V30 99 1 34 84
M  V30 100 1 35 52
M  V30 101 1 37 93
M  V30 102 1 38 75
M  V30 103 1 39 90
M  V30 104 1 40 78
M  V30 105 1 42 87
M  V30 106 1 43 48
M  V30 107 1 44 69
M  V30 108 1 45 54
M  V30 END BOND
M  V30 END CTAB
M  END

$$$$
