
     RDKit          3D

  0  0  0  0  0  0  0  0  0  0999 V3000
M  V30 BEGIN CTAB
M  V30 COUNTS 99 108 0 0 0
M  V30 BEGIN ATOM
M  V30 1 Pd -0.6515 -1.9861 -7.0496 0
M  V30 2 Pb 0.2358 -1.5599 -7.1859 0
M  V30 3 Pb -1.1509 -1.1379 -7.2378 0
M  V30 4 Pb -0.1263 -2.8153 -6.8953 0
M  V30 5 Pb -1.4691 -2.4625 -6.7219 0
M  V30 6 Pd 2.4876 -0.4534 6.9108 0
M  V30 7 Pb 2.5741 -1.4235 6.6727 0
M  V30 8 Pb 2.2399 0.5228 7.0074 0
M  V30 9 Pb 3.2827 -0.1886 6.3744 0
M  V30 10 Pb 1.6835 -0.7067 7.4378 0
M  V30 11 Pd -2.8699 -4.1484 4.6911 0
M  V30 12 Pb -1.9440 -4.5254 4.7729 0
M  V30 13 Pb -2.9573 -4.4387 3.7379 0
M  V30 14 Pb -2.7621 -3.8115 5.6199 0
M  V30 15 Pb -3.7002 -3.5999 4.6162 0
M  V30 16 Pd -0.4045 -4.7690 -2.8349 0
M  V30 17 Pb -1.0073 -4.7965 -2.0357 0
M  V30 18 Pb 0.1682 -4.8480 -3.6426 0
M  V30 19 Pb -1.1987 -4.6167 -3.4363 0
M  V30 20 Pb 0.4196 -4.8602 -2.2703 0
M  V30 21 Pd 4.2036 -1.6977 -1.7527 0
M  V30 22 Pb 4.3399 -1.6008 -0.7700 0
M  V30 23 Pb 3.7848 -2.6026 -1.6125 0
M  V30 24 Pb 4.0658 -1.6983 -2.7435 0
M  V30 25 Pb 4.6103 -0.7798 -1.8708 0
M  V30 26 Pd -4.2444 2.2808 1.4847 0
M  V30 27 Pb -4.6343 1.7098 2.2068 0
M  V30 28 Pb -3.8511 2.7937 0.6926 0
M  V30 29 Pb -3.7796 2.8649 2.1619 0
M  V30 30 Pb -4.7746 1.7273 0.8583 0
M  V30 31 Pd 0.7093 4.2097 3.8008 0
M  V30 32 Pb 0.8316 3.7630 4.7056 0
M  V30 33 Pb 1.6867 4.0988 3.6502 0
M  V30 34 Pb 0.6447 4.7125 2.9422 0
M  V30 35 Pb -0.2859 4.2747 3.9142 0
M  V30 36 Pd -2.7079 2.5486 -4.4531 0
M  V30 37 Pb -2.8070 2.9135 -3.4996 0
M  V30 38 Pb -2.6124 2.1870 -5.3817 0
M  V30 39 Pb -3.5253 1.9992 -4.3478 0
M  V30 40 Pb -1.8695 3.0795 -4.5645 0
M  V30 41 Pd 3.4899 3.9831 -0.7995 0
M  V30 42 Pb 4.1178 3.3132 -1.2186 0
M  V30 43 Pb 3.1514 4.2560 -1.6967 0
M  V30 44 Pb 3.7591 3.6296 0.0927 0
M  V30 45 Pb 2.8168 4.6015 -0.3974 0
M  V30 46 Ag 3.7770 0.1513 5.9393 0
M  V30 47 Fe 3.5397 2.0676 4.5866 0
M  V30 48 Ag 2.3943 3.8803 3.6060 0
M  V30 49 Ag 2.4815 -2.1379 6.4516 0
M  V30 50 Fe 0.7548 -3.5681 5.6525 0
M  V30 51 Ag -1.2138 -4.6694 4.8927 0
M  V30 52 Ag 1.0595 -0.9478 7.7618 0
M  V30 53 Fe -0.8720 -2.2117 7.2479 0
M  V30 54 Ag -2.5954 -3.5075 6.2768 0
M  V30 55 Ag -3.0392 -4.6256 3.0158 0
M  V30 56 Fe -2.2142 -4.7288 0.7899 0
M  V30 57 Ag -1.4939 -4.8813 -1.4692 0
M  V30 58 Ag 0.9534 -1.3721 -7.1214 0
M  V30 59 Fe 2.5707 -1.4157 -5.3857 0
M  V30 60 Ag 3.9748 -1.5722 -3.4785 0
M  V30 61 Ag -5.1446 1.3602 0.3362 0
M  V30 62 Fe -4.9965 1.1815 -2.0033 0
M  V30 63 Ag -4.1054 1.5968 -4.1380 0
M  V30 64 Ag -4.2360 -3.0787 4.5777 0
M  V30 65 Fe -4.7020 -0.9321 3.6768 0
M  V30 66 Ag -4.9402 1.2046 2.6692 0
M  V30 67 Ag 4.4288 -1.3428 -0.0782 0
M  V30 68 Fe 4.2877 0.8607 0.7605 0
M  V30 69 Ag 3.9445 3.1956 0.6673 0
M  V30 70 Ag -1.2264 3.4581 -4.6213 0
M  V30 71 Fe 0.8323 4.0080 -3.5793 0
M  V30 72 Ag 2.8158 4.4160 -2.3444 0
M  V30 73 Ba 1.0654 -4.9218 -1.8870 0
M  V30 74 Ga 2.2648 -4.0753 -1.6843 0
M  V30 75 Ba 3.4917 -3.2798 -1.4436 0
M  V30 76 Ba 0.3036 -3.4059 -6.7567 0
M  V30 77 Ga 0.4718 -4.2031 -5.5399 0
M  V30 78 Ba 0.5550 -4.9307 -4.2718 0
M  V30 79 Ba -1.5091 -0.5006 -7.4150 0
M  V30 80 Ga -2.0267 0.6967 -6.7217 0
M  V30 81 Ba -2.5623 1.9147 -6.0800 0
M  V30 82 Ba 0.6417 5.1176 2.3143 0
M  V30 83 Ga 1.4531 5.0873 1.0862 0
M  V30 84 Ba 2.2732 5.0450 -0.1358 0
M  V30 85 Ba 4.9408 -0.1043 -1.9843 0
M  V30 86 Ga 4.7181 1.3442 -1.7293 0
M  V30 87 Ba 4.5981 2.8131 -1.5279 0
M  V30 88 Ba -2.0091 -2.8632 -6.3833 0
M  V30 89 Ga -1.9322 -3.6816 -5.1485 0
M  V30 90 Ba -1.7765 -4.4796 -3.9074 0
M  V30 91 Ba -3.5571 3.1961 0.1030 0
M  V30 92 Ga -3.2353 3.1260 -1.3627 0
M  V30 93 Ba -2.8424 3.2576 -2.8065 0
M  V30 94 Ba 1.9866 1.2397 7.0654 0
M  V30 95 Ga 1.4899 2.3352 6.1809 0
M  V30 96 Ba 0.9716 3.5063 5.4138 0
M  V30 97 Ba -3.5069 3.3134 2.7083 0
M  V30 98 Ga -2.2381 3.7907 3.3080 0
M  V30 99 Ba -1.0344 4.3314 3.9838 0
M  V30 END ATOM
M  V30 BEGIN BOND
M  V30 1 1 1 2
M  V30 2 1 1 3
M  V30 3 1 1 4
M  V30 4 1 1 5
M  V30 5 1 6 7
M  V30 6 1 6 8
M  V30 7 1 6 9
M  V30 8 1 6 10
M  V30 9 1 11 12
M  V30 10 1 11 13
M  V30 11 1 11 14
M  V30 12 1 11 15
M  V30 13 1 16 17
M  V30 14 1 16 18
M  V30 15 1 16 19
M  V30 16 1 16 20
M  V30 17 1 21 22
M  V30 18 1 21 23
M  V30 19 1 21 24
M  V30 20 1 21 25
M  V30 21 1 26 27
M  V30 22 1 26 28
M  V30 23 1 26 29
M  V30 24 1 26 30
M  V30 25 1 31 32
M  V30 26 1 31 33
M  V30 27 1 31 34
M  V30 28 1 31 35
M  V30 29 1 36 37
M  V30 30 1 36 38
M  V30 31 1 36 39
M  V30 32 1 36 40
M  V30 33 1 41 42
M  V30 34 1 41 43
M  V30 35 1 41 44
M  V30 36 1 41 45
M  V30 37 1 46 47
M  V30 38 1 47 48
M  V30 39 1 49 50
M  V30 40 1 50 51
M  V30 41 1 52 53
M  V30 42 1 53 54
M  V30 43 1 55 56
M  V30 44 1 56 57
M  V30 45 1 58 59
M  V30 46 1 59 60
M  V30 47 1 61 62
M  V30 48 1 62 63
M  V30 49 1 64 65
M  V30 50 1 65 66
M  V30 51 1 67 68
M  V30 52 1 68 69
M  V30 53 1 70 71
M  V30 54 1 71 72
M  V30 55 1 73 74
M  V30 56 1 74 75
M  V30 57 1 76 77
M  V30 58 1 77 78
M  V30 59 1 79 80
M  V30 60 1 80 81
M  V30 61 1 82 83
M  V30 62 1 83 84
M  V30 63 1 85 86
M  V30 64 1 86 87
M  V30 65 1 88 89
M  V30 66 1 89 90
M  V30 67 1 91 92
M  V30 68 1 92 93
M  V30 69 1 94 95
M  V30 70 1 95 96
M  V30 71 1 97 98
M  V30 72 1 98 99
M  V30 73 1 2 58
M  V30 74 1 3 79
M  V30 75 1 4 76
M  V30 76 1 5 88
M  V30 77 1 7 49
M  V30 78 1 8 94
M  V30 79 1 9 46
M  V30 80 1 10 52
M  V30 81 1 12 51
M  V30 82 1 13 55
M  V30 83 1 14 54
M  V30 84 1 15 64
M  V30 85 1 17 57
M  V30 86 1 18 78
M  V30 87 1 19 90
M  V30 88 1 20 73
M  V30 89 1 22 67
M  V30 90 1 23 75
M  V30 91 1 24 60
M  V30 92 1 25 85
M  V30 93 1 27 66
M  V30 94 1 28 91
M  V30 95 1 29 97
M  V30 96 1 30 61
M  V30 97 1 32 96
M  V30 98 1 33 48
M  V30 99 1 34 82
M  V30 100 1 35 99
M  V30 101 1 37 93
M  V30 102 1 38 81
M  V30 103 1 39 63
M  V30 104 1 40 70
M  V30 105 1 42 87
M  V30 106 1 43 72
M  V30 107 1 44 69
M  V30 108 1 45 84
M  V30 END BOND
M  V30 END CTAB
M  END

$$$$
