
     RDKit          3D

  0  0  0  0  0  0  0  0  0  0999 V3000
M  V30 BEGIN CTAB
M  V30 COUNTS 99 108 0 0 0
M  V30 BEGIN ATOM
M  V30 1 Pd -1.7620 -1.3086 -3.5642 0
M  V30 2 Pb -0.8394 -1.4490 -3.9388 0
M  V30 3 Pb -1.8504 -0.4225 -4.0183 0
M  V30 4 Pb -1.7728 -2.2405 -3.2015 0
M  V30 5 Pb -2.6367 -1.0878 -3.1357 0
M  V30 6 Pd -3.6035 -5.0231 0.6078 0
M  V30 7 Pb -3.8512 -5.2321 1.5501 0
M  V30 8 Pb -3.6365 -4.0515 0.8380 0
M  V30 9 Pb -3.2222 -4.8488 -0.3014 0
M  V30 10 Pb -3.4049 -5.9895 0.4776 0
M  V30 11 Pd -0.5478 -3.6444 4.0430 0
M  V30 12 Pb 0.1887 -2.9822 3.9098 0
M  V30 13 Pb -1.1978 -3.0118 3.6121 0
M  V30 14 Pb 0.1099 -4.3135 4.3979 0
M  V30 15 Pb -1.3136 -4.2647 4.2104 0
M  V30 16 Pd 3.4738 -2.5964 -1.7889 0
M  V30 17 Pb 3.9753 -2.9198 -0.9846 0
M  V30 18 Pb 3.8159 -1.6782 -1.5754 0
M  V30 19 Pb 3.2196 -3.5431 -1.9897 0
M  V30 20 Pb 2.9667 -2.2891 -2.6028 0
M  V30 21 Pd 0.5595 3.7428 3.3805 0
M  V30 22 Pb 0.0158 4.5773 3.2957 0
M  V30 23 Pb 1.3939 4.2723 3.2411 0
M  V30 24 Pb 1.0788 2.8908 3.4336 0
M  V30 25 Pb -0.2853 3.2231 3.4990 0
M  V30 26 Pd 2.7722 -6.6830 1.4160 0
M  V30 27 Pb 2.8305 -6.6587 0.4180 0
M  V30 28 Pb 3.4883 -5.9884 1.4626 0
M  V30 29 Pb 2.6368 -6.6321 2.4080 0
M  V30 30 Pb 2.0244 -7.3372 1.3289 0
M  V30 31 Pd -1.0684 6.1817 -3.8567 0
M  V30 32 Pb -0.4028 6.6787 -3.2673 0
M  V30 33 Pb -1.8401 6.3641 -3.2433 0
M  V30 34 Pb -0.3514 6.0194 -4.5225 0
M  V30 35 Pb -1.6214 5.5332 -4.3700 0
M  V30 36 Pd -3.7588 4.2740 0.7320 0
M  V30 37 Pb -3.8907 4.9392 -0.0035 0
M  V30 38 Pb -3.5920 3.6259 1.4732 0
M  V30 39 Pb -4.1841 3.5346 0.2077 0
M  V30 40 Pb -3.2973 4.9811 1.2672 0
M  V30 41 Pd 3.8060 5.1400 -0.9205 0
M  V30 42 Pb 4.3225 4.3058 -0.7362 0
M  V30 43 Pb 4.0133 5.0150 -1.8823 0
M  V30 44 Pb 3.1606 5.8951 -1.1554 0
M  V30 45 Pb 3.6849 5.2990 0.0599 0
M  V30 46 Ag -2.0272 0.2185 -4.3662 0
M  V30 47 Fe -2.0204 2.5812 -4.5895 0
M  V30 48 Ag -1.9302 4.9490 -4.7149 0
M  V30 49 Ag 4.1530 -1.0404 -1.3582 0
M  V30 50 Fe 4.3841 1.2994 -1.0104 0
M  V30 51 Ag 4.6443 3.6347 -0.6524 0
M  V30 52 Ag 0.7112 -2.4511 3.8297 0
M  V30 53 Fe 1.1481 -0.1253 3.6391 0
M  V30 54 Ag 1.4230 2.2258 3.4587 0
M  V30 55 Ag -3.2486 -0.8016 -2.8120 0
M  V30 56 Fe -3.9710 1.0289 -1.4818 0
M  V30 57 Ag -4.4596 2.9347 -0.1509 0
M  V30 58 Ag -3.0965 -6.6663 0.4618 0
M  V30 59 Fe -0.9029 -7.4905 0.8004 0
M  V30 60 Ag 1.4152 -7.7516 1.2079 0
M  V30 61 Ag 0.2460 5.8656 -4.9272 0
M  V30 62 Fe 2.4367 5.3287 -4.2741 0
M  V30 63 Ag 4.0609 4.9681 -2.6171 0
M  V30 64 Ba 0.1256 7.0228 -2.8262 0
M  V30 65 Ga 1.3915 6.6866 -2.0941 0
M  V30 66 Ba 2.6622 6.4566 -1.3299 0
M  V30 67 Ba 4.3519 -3.1618 -0.3809 0
M  V30 68 Ga 4.1979 -4.2961 0.5497 0
M  V30 69 Ba 4.0035 -5.4451 1.4542 0
M  V30 70 Ba 3.0831 -4.2694 -2.1214 0
M  V30 71 Ga 2.9510 -5.4497 -1.2456 0
M  V30 72 Ba 2.8250 -6.6001 -0.3299 0
M  V30 73 Ba -2.4625 6.5078 -2.8452 0
M  V30 74 Ga -3.1910 5.9668 -1.6795 0
M  V30 75 Ba -3.9679 5.4755 -0.5230 0
M  V30 76 Ba -3.5744 -3.3540 1.1060 0
M  V30 77 Ga -2.6602 -2.8943 2.1731 0
M  V30 78 Ba -1.6957 -2.5776 3.2481 0
M  V30 79 Ba 2.0060 4.6871 3.1276 0
M  V30 80 Ga 2.8171 5.0472 1.9503 0
M  V30 81 Ba 3.6528 5.4312 0.7982 0
M  V30 82 Ba -3.9248 -5.3965 2.2745 0
M  V30 83 Ga -2.9748 -5.0760 3.3517 0
M  V30 84 Ba -1.9310 -4.6780 4.3101 0
M  V30 85 Ba -0.1378 -1.5132 -4.2123 0
M  V30 86 Ga 1.2174 -1.8120 -3.6887 0
M  V30 87 Ba 2.6009 -2.1005 -3.2381 0
M  V30 88 Ba -0.9327 2.8520 3.5613 0
M  V30 89 Ga -2.2011 2.9694 2.8220 0
M  V30 90 Ba -3.4303 3.1549 2.0322 0
M  V30 91 Ba -1.8103 -2.9648 -3.0096 0
M  V30 92 Ga -2.3635 -3.8259 -1.9458 0
M  V30 93 Ba -2.8638 -4.8045 -0.9604 0
M  V30 94 Ba -0.4208 5.1801 3.2075 0
M  V30 95 Ga -1.6735 5.3753 2.4549 0
M  V30 96 Ba -2.9213 5.4837 1.6771 0
M  V30 97 Ba 0.6139 -4.8249 4.6260 0
M  V30 98 Ga 1.5654 -5.7009 3.9075 0
M  V30 99 Ba 2.5001 -6.5569 3.1444 0
M  V30 END ATOM
M  V30 BEGIN BOND
M  V30 1 1 1 2
M  V30 2 1 1 3
M  V30 3 1 1 4
M  V30 4 1 1 5
M  V30 5 1 6 7
M  V30 6 1 6 8
M  V30 7 1 6 9
M  V30 8 1 6 10
M  V30 9 1 11 12
M  V30 10 1 11 13
M  V30 11 1 11 14
M  V30 12 1 11 15
M  V30 13 1 16 17
M  V30 14 1 16 18
M  V30 15 1 16 19
M  V30 16 1 16 20
M  V30 17 1 21 22
M  V30 18 1 21 23
M  V30 19 1 21 24
M  V30 20 1 21 25
M  V30 21 1 26 27
M  V30 22 1 26 28
M  V30 23 1 26 29
M  V30 24 1 26 30
M  V30 25 1 31 32
M  V30 26 1 31 33
M  V30 27 1 31 34
M  V30 28 1 31 35
M  V30 29 1 36 37
M  V30 30 1 36 38
M  V30 31 1 36 39
M  V30 32 1 36 40
M  V30 33 1 41 42
M  V30 34 1 41 43
M  V30 35 1 41 44
M  V30 36 1 41 45
M  V30 37 1 46 47
M  V30 38 1 47 48
M  V30 39 1 49 50
M  V30 40 1 50 51
M  V30 41 1 52 53
M  V30 42 1 53 54
M  V30 43 1 55 56
M  V30 44 1 56 57
M  V30 45 1 58 59
M  V30 46 1 59 60
M  V30 47 1 61 62
M  V30 48 1 62 63
M  V30 49 1 64 65
M  V30 50 1 65 66
M  V30 51 1 67 68
M  V30 52 1 68 69
M  V30 53 1 70 71
M  V30 54 1 71 72
M  V30 55 1 73 74
M  V30 56 1 74 75
M  V30 57 1 76 77
M  V30 58 1 77 78
M  V30 59 1 79 80
M  V30 60 1 80 81
M  V30 61 1 82 83
M  V30 62 1 83 84
M  V30 63 1 85 86
M  V30 64 1 86 87
M  V30 65 1 88 89
M  V30 66 1 89 90
M  V30 67 1 91 92
M  V30 68 1 92 93
M  V30 69 1 94 95
M  V30 70 1 95 96
M  V30 71 1 97 98
M  V30 72 1 98 99
M  V30 73 1 2 85
M  V30 74 1 3 46
M  V30 75 1 4 91
M  V30 76 1 5 55
M  V30 77 1 7 82
M  V30 78 1 8 76
M  V30 79 1 9 93
M  V30 80 1 10 58
M  V30 81 1 12 52
M  V30 82 1 13 78
M  V30 83 1 14 97
M  V30 84 1 15 84
M  V30 85 1 17 67
M  V30 86 1 18 49
M  V30 87 1 19 70
M  V30 88 1 20 87
M  V30 89 1 22 94
M  V30 90 1 23 79
M  V30 91 1 24 54
M  V30 92 1 25 88
M  V30 93 1 27 72
M  V30 94 1 28 69
M  V30 95 1 29 99
M  V30 96 1 30 60
M  V30 97 1 32 64
M  V30 98 1 33 73
M  V30 99 1 34 61
M  V30 100 1 35 48
M  V30 101 1 37 75
M  V30 102 1 38 90
M  V30 103 1 39 57
M  V30 104 1 40 96
M  V30 105 1 42 51
M  V30 106 1 43 63
M  V30 107 1 44 66
M  V30 108 1 45 81
M  V30 END BOND
M  V30 END CTAB
M  END

$$$$
