
     RDKit          3D

  0  0  0  0  0  0  0  0  0  0999 V3000
M  V30 BEGIN CTAB
M  V30 COUNTS 99 108 0 0 0
M  V30 BEGIN ATOM
M  V30 1 Pd -0.0486 -0.7555 -0.6952 0
M  V30 2 Pb 0.8622 -0.5308 -0.3578 0
M  V30 3 Pb -0.4258 0.0619 -0.2720 0
M  V30 4 Pb 0.3331 -1.4162 -1.3336 0
M  V30 5 Pb -0.9629 -1.1306 -0.8273 0
M  V30 6 Pd 1.1336 1.0767 -7.4995 0
M  V30 7 Pb 1.2118 0.3162 -6.8528 0
M  V30 8 Pb 1.0627 1.7945 -8.1846 0
M  V30 9 Pb 2.1217 1.0817 -7.6299 0
M  V30 10 Pb 0.1842 1.2801 -7.1992 0
M  V30 11 Pd 3.9368 4.8841 -9.7449 0
M  V30 12 Pb 2.9455 4.7120 -9.7193 0
M  V30 13 Pb 4.7258 5.4425 -9.4641 0
M  V30 14 Pb 4.1213 4.1905 -9.0463 0
M  V30 15 Pb 3.8442 5.4065 -10.5941 0
M  V30 16 Pd -0.9860 -4.0148 11.8158 0
M  V30 17 Pb -1.3613 -4.6134 12.5194 0
M  V30 18 Pb -0.5252 -3.4208 11.1562 0
M  V30 19 Pb -0.9057 -4.8063 11.1836 0
M  V30 20 Pb -1.4808 -3.2485 12.2251 0
M  V30 21 Pd -2.4225 -5.2935 3.9596 0
M  V30 22 Pb -2.8304 -4.9148 3.1269 0
M  V30 23 Pb -3.1422 -4.8758 4.5142 0
M  V30 24 Pb -1.9729 -5.6339 4.7834 0
M  V30 25 Pb -1.6380 -5.6235 3.4308 0
M  V30 26 Pd 2.2611 8.1488 -7.4003 0
M  V30 27 Pb 2.2802 7.7773 -6.4703 0
M  V30 28 Pb 3.2549 8.3081 -7.4062 0
M  V30 29 Pb 2.1454 8.7161 -8.2172 0
M  V30 30 Pb 1.4746 7.5775 -7.6613 0
M  V30 31 Pd -4.9745 -5.5863 9.0703 0
M  V30 32 Pb -4.8575 -5.0343 8.2434 0
M  V30 33 Pb -5.1697 -6.1641 9.8592 0
M  V30 34 Pb -4.0704 -6.0375 8.9686 0
M  V30 35 Pb -5.5825 -4.8872 9.4466 0
M  V30 36 Pd 2.0992 -3.9009 5.0493 0
M  V30 37 Pb 2.5478 -3.2248 4.4623 0
M  V30 38 Pb 1.9499 -4.5045 4.2651 0
M  V30 39 Pb 2.1190 -3.2886 5.8368 0
M  V30 40 Pb 1.6015 -4.5587 5.6131 0
M  V30 41 Pd -0.9786 5.1917 -4.5442 0
M  V30 42 Pb -0.3342 5.8664 -4.1937 0
M  V30 43 Pb -1.0944 4.8092 -3.6261 0
M  V30 44 Pb -0.8982 5.6148 -5.4410 0
M  V30 45 Pb -1.4050 4.3762 -4.9756 0
M  V30 46 Ag -0.1212 -3.0065 10.6785 0
M  V30 47 Fe 0.9863 -2.8512 8.5843 0
M  V30 48 Ag 2.0279 -2.8716 6.4511 0
M  V30 49 Ag -0.6846 0.7475 -0.1367 0
M  V30 50 Fe -0.9957 2.7255 -1.4103 0
M  V30 51 Ag -1.1876 4.5372 -2.9318 0
M  V30 52 Ag 0.6026 -1.7597 -1.9375 0
M  V30 53 Fe 0.9972 -1.1567 -4.1984 0
M  V30 54 Ag 1.2770 -0.2643 -6.3800 0
M  V30 55 Ag 0.9562 2.4077 -8.5845 0
M  V30 56 Fe 0.0886 4.4744 -7.8801 0
M  V30 57 Ag -0.7850 5.8000 -6.1482 0
M  V30 58 Ag -2.0902 -2.8255 12.3404 0
M  V30 59 Fe -4.1995 -3.1875 11.3058 0
M  V30 60 Ag -5.7437 -4.2921 9.8754 0
M  V30 61 Ag -1.7407 -5.0971 12.9332 0
M  V30 62 Fe -3.6796 -6.2465 12.2806 0
M  V30 63 Ag -5.1951 -6.5177 10.5099 0
M  V30 64 Ag -1.6061 -1.5060 -0.7664 0
M  V30 65 Fe -2.5277 -3.0719 0.7612 0
M  V30 66 Ag -3.0829 -4.5958 2.4953 0
M  V30 67 Ag 1.4976 -0.4874 0.0328 0
M  V30 68 Fe 2.3539 -1.4991 2.0019 0
M  V30 69 Ag 2.8284 -2.7199 3.9822 0
M  V30 70 Ag 3.7297 5.8817 -11.1557 0
M  V30 71 Fe 2.8132 8.0111 -10.8579 0
M  V30 72 Ag 2.1062 9.0445 -8.8843 0
M  V30 73 Ba 2.1989 4.7773 -9.5739 0
M  V30 74 Ga 1.5369 5.8633 -8.7795 0
M  V30 75 Ba 1.0471 7.0212 -7.9623 0
M  V30 76 Ba -1.0062 -5.8215 3.0737 0
M  V30 77 Ga 0.3945 -5.4298 3.3351 0
M  V30 78 Ba 1.7463 -4.9610 3.7045 0
M  V30 79 Ba 2.2358 7.6284 -5.7335 0
M  V30 80 Ga 1.2579 6.9657 -4.8473 0
M  V30 81 Ba 0.2566 6.2838 -4.0028 0
M  V30 82 Ba -0.5061 1.4940 -6.9395 0
M  V30 83 Ga -1.0656 2.6257 -6.1307 0
M  V30 84 Ba -1.6599 3.7418 -5.3252 0
M  V30 85 Ba 5.1549 5.9903 -9.1502 0
M  V30 86 Ga 4.6653 7.1470 -8.3311 0
M  V30 87 Ba 4.0031 8.2343 -7.5386 0
M  V30 88 Ba -3.6456 -4.5066 4.9303 0
M  V30 89 Ga -4.2253 -4.5987 6.2847 0
M  V30 90 Ba -4.8531 -4.6143 7.6204 0
M  V30 91 Ba -0.9923 -5.3699 10.6644 0
M  V30 92 Ga -2.1557 -5.8387 9.8307 0
M  V30 93 Ba -3.3403 -6.2809 9.0127 0
M  V30 94 Ba 2.8575 1.2166 -7.6419 0
M  V30 95 Ga 3.6058 2.3912 -8.1325 0
M  V30 96 Ba 4.3094 3.5886 -8.6348 0
M  V30 97 Ba -1.5741 -5.8590 5.3752 0
M  V30 98 Ga -0.1989 -5.4924 5.7528 0
M  V30 99 Ba 1.1785 -5.0366 6.0050 0
M  V30 END ATOM
M  V30 BEGIN BOND
M  V30 1 1 1 2
M  V30 2 1 1 3
M  V30 3 1 1 4
M  V30 4 1 1 5
M  V30 5 1 6 7
M  V30 6 1 6 8
M  V30 7 1 6 9
M  V30 8 1 6 10
M  V30 9 1 11 12
M  V30 10 1 11 13
M  V30 11 1 11 14
M  V30 12 1 11 15
M  V30 13 1 16 17
M  V30 14 1 16 18
M  V30 15 1 16 19
M  V30 16 1 16 20
M  V30 17 1 21 22
M  V30 18 1 21 23
M  V30 19 1 21 24
M  V30 20 1 21 25
M  V30 21 1 26 27
M  V30 22 1 26 28
M  V30 23 1 26 29
M  V30 24 1 26 30
M  V30 25 1 31 32
M  V30 26 1 31 33
M  V30 27 1 31 34
M  V30 28 1 31 35
M  V30 29 1 36 37
M  V30 30 1 36 38
M  V30 31 1 36 39
M  V30 32 1 36 40
M  V30 33 1 41 42
M  V30 34 1 41 43
M  V30 35 1 41 44
M  V30 36 1 41 45
M  V30 37 1 46 47
M  V30 38 1 47 48
M  V30 39 1 49 50
M  V30 40 1 50 51
M  V30 41 1 52 53
M  V30 42 1 53 54
M  V30 43 1 55 56
M  V30 44 1 56 57
M  V30 45 1 58 59
M  V30 46 1 59 60
M  V30 47 1 61 62
M  V30 48 1 62 63
M  V30 49 1 64 65
M  V30 50 1 65 66
M  V30 51 1 67 68
M  V30 52 1 68 69
M  V30 53 1 70 71
M  V30 54 1 71 72
M  V30 55 1 73 74
M  V30 56 1 74 75
M  V30 57 1 76 77
M  V30 58 1 77 78
M  V30 59 1 79 80
M  V30 60 1 80 81
M  V30 61 1 82 83
M  V30 62 1 83 84
M  V30 63 1 85 86
M  V30 64 1 86 87
M  V30 65 1 88 89
M  V30 66 1 89 90
M  V30 67 1 91 92
M  V30 68 1 92 93
M  V30 69 1 94 95
M  V30 70 1 95 96
M  V30 71 1 97 98
M  V30 72 1 98 99
M  V30 73 1 2 67
M  V30 74 1 3 49
M  V30 75 1 4 52
M  V30 76 1 5 64
M  V30 77 1 7 54
M  V30 78 1 8 55
M  V30 79 1 9 94
M  V30 80 1 10 82
M  V30 81 1 12 73
M  V30 82 1 13 85
M  V30 83 1 14 96
M  V30 84 1 15 70
M  V30 85 1 17 61
M  V30 86 1 18 46
M  V30 87 1 19 91
M  V30 88 1 20 58
M  V30 89 1 22 66
M  V30 90 1 23 88
M  V30 91 1 24 97
M  V30 92 1 25 76
M  V30 93 1 27 79
M  V30 94 1 28 87
M  V30 95 1 29 72
M  V30 96 1 30 75
M  V30 97 1 32 90
M  V30 98 1 33 63
M  V30 99 1 34 93
M  V30 100 1 35 60
M  V30 101 1 37 69
M  V30 102 1 38 78
M  V30 103 1 39 48
M  V30 104 1 40 99
M  V30 105 1 42 81
M  V30 106 1 43 51
M  V30 107 1 44 57
M  V30 108 1 45 84
M  V30 END BOND
M  V30 END CTAB
M  END

$$$$
