
     RDKit          3D

  0  0  0  0  0  0  0  0  0  0999 V3000
M  V30 BEGIN CTAB
M  V30 COUNTS 99 108 0 0 0
M  V30 BEGIN ATOM
M  V30 1 Pd 3.9661 -5.3641 3.9337 0
M  V30 2 Pb 3.4055 -4.9659 4.6554 0
M  V30 3 Pb 4.7166 -4.7839 4.2519 0
M  V30 4 Pb 4.5052 -5.7502 3.1850 0
M  V30 5 Pb 3.1895 -5.8765 3.5666 0
M  V30 6 Pd 4.8101 -0.1996 3.0559 0
M  V30 7 Pb 4.5756 0.3985 3.8257 0
M  V30 8 Pb 5.2389 -0.8749 3.6613 0
M  V30 9 Pb 5.0130 -0.7977 2.2910 0
M  V30 10 Pb 4.4085 0.4907 2.4206 0
M  V30 11 Pd -6.3571 5.6411 -1.4839 0
M  V30 12 Pb -6.9492 6.0817 -0.8104 0
M  V30 13 Pb -5.9687 5.0581 -0.7528 0
M  V30 14 Pb -5.7536 5.1940 -2.1439 0
M  V30 15 Pb -6.4177 6.4544 -2.0629 0
M  V30 16 Pd -2.4617 7.3088 1.1531 0
M  V30 17 Pb -3.1081 7.6966 1.8089 0
M  V30 18 Pb -2.8304 6.3858 1.3464 0
M  V30 19 Pb -2.4158 8.1892 0.6808 0
M  V30 20 Pb -1.8302 6.9285 0.4771 0
M  V30 21 Pd -0.8460 -3.7822 -5.8734 0
M  V30 22 Pb -0.0382 -4.0177 -6.4036 0
M  V30 23 Pb -0.7189 -2.8157 -6.0917 0
M  V30 24 Pb -0.8817 -4.7400 -5.5376 0
M  V30 25 Pb -1.6687 -3.5356 -5.3600 0
M  V30 26 Pd 0.1846 0.8598 5.1457 0
M  V30 27 Pb -0.6366 0.3903 4.8310 0
M  V30 28 Pb -0.0964 1.6314 4.5715 0
M  V30 29 Pb 1.0578 1.2846 5.3870 0
M  V30 30 Pb 0.4447 0.0485 5.6628 0
M  V30 31 Pd -3.6948 1.2089 -0.9688 0
M  V30 32 Pb -3.7236 1.8415 -1.7428 0
M  V30 33 Pb -3.6915 0.6051 -0.1752 0
M  V30 34 Pb -3.3093 1.9133 -0.3692 0
M  V30 35 Pb -3.9877 0.4544 -1.5555 0
M  V30 36 Pd 2.2033 -7.6059 -2.7277 0
M  V30 37 Pb 1.7224 -7.6473 -1.8519 0
M  V30 38 Pb 2.7086 -7.5316 -3.5810 0
M  V30 39 Pb 1.3377 -7.4829 -3.2476 0
M  V30 40 Pb 3.0532 -7.6330 -2.2009 0
M  V30 41 Pd 2.1439 1.7671 -2.1359 0
M  V30 42 Pb 1.7085 1.6145 -3.0240 0
M  V30 43 Pb 1.6999 2.6604 -2.0630 0
M  V30 44 Pb 2.6108 0.8977 -2.2359 0
M  V30 45 Pb 2.5668 1.8944 -1.2170 0
M  V30 46 Ag 4.8254 -6.0649 2.5839 0
M  V30 47 Fe 4.3720 -6.8687 0.3952 0
M  V30 48 Ag 3.6511 -7.5925 -1.7493 0
M  V30 49 Ag 3.0035 -4.6143 5.1773 0
M  V30 50 Fe 1.7974 -2.6395 5.6926 0
M  V30 51 Ag 0.6424 -0.5912 5.9929 0
M  V30 52 Ag -2.2833 -3.3085 -4.9937 0
M  V30 53 Fe -3.2722 -1.7525 -3.4961 0
M  V30 54 Ag -4.1434 -0.1391 -1.9863 0
M  V30 55 Ag 2.6353 -6.2356 3.2105 0
M  V30 56 Fe 1.9188 -6.9976 1.0781 0
M  V30 57 Ag 1.4453 -7.6533 -1.1550 0
M  V30 58 Ag -0.3715 2.1426 4.0930 0
M  V30 59 Fe -1.6602 2.3905 2.1098 0
M  V30 60 Ag -2.9674 2.3679 0.1234 0
M  V30 61 Ag -1.3634 6.6682 -0.0494 0
M  V30 62 Fe 0.0001 4.9732 -1.0029 0
M  V30 63 Ag 1.3867 3.3412 -2.0304 0
M  V30 64 Ag -6.2138 7.1378 -2.2934 0
M  V30 65 Fe -4.4256 8.3787 -1.3467 0
M  V30 66 Ag -2.6297 8.6967 0.1724 0
M  V30 67 Ag 0.5870 -4.2892 -6.6940 0
M  V30 68 Fe 2.1321 -5.8582 -5.8584 0
M  V30 69 Ag 2.9742 -7.3581 -4.2499 0
M  V30 70 Ag -1.2206 0.0534 4.5104 0
M  V30 71 Fe -2.5298 0.0234 2.5341 0
M  V30 72 Ag -3.6656 0.2164 0.4621 0
M  V30 73 Ag -0.5780 -2.0833 -6.1607 0
M  V30 74 Fe 0.3754 -0.2368 -5.0115 0
M  V30 75 Ag 1.3758 1.4544 -3.6776 0
M  V30 76 Ag -7.2195 6.4512 -0.2254 0
M  V30 77 Fe -5.9156 7.4765 1.4416 0
M  V30 78 Ag -3.7218 7.9145 2.1661 0
M  V30 79 Ag 5.0753 -1.1738 1.6583 0
M  V30 80 Fe 4.2029 -0.8162 -0.4988 0
M  V30 81 Ag 3.0022 0.2715 -2.2070 0
M  V30 82 Ba -5.2907 4.8373 -2.6138 0
M  V30 83 Ga -4.5180 3.5871 -2.4913 0
M  V30 84 Ba -3.7687 2.3296 -2.3106 0
M  V30 85 Ba 4.3719 0.8635 4.3815 0
M  V30 86 Ga 3.0710 1.2252 4.9824 0
M  V30 87 Ba 1.7432 1.5473 5.5453 0
M  V30 88 Ba -0.8972 -5.4585 -5.2726 0
M  V30 89 Ga -0.0635 -6.3884 -4.4496 0
M  V30 90 Ba 0.6852 -7.4008 -3.6424 0
M  V30 91 Ba 4.1356 1.0688 1.9923 0
M  V30 92 Ga 3.4957 1.4512 0.6941 0
M  V30 93 Ba 2.8637 2.0481 -0.5248 0
M  V30 94 Ba 5.2318 -4.2991 4.5037 0
M  V30 95 Ga 5.4225 -2.8476 4.2990 0
M  V30 96 Ba 5.5895 -1.3956 4.0777 0
M  V30 97 Ba -5.5712 4.7303 -0.1847 0
M  V30 98 Ga -4.3928 5.1990 0.6177 0
M  V30 99 Ba -3.2152 5.7236 1.3859 0
M  V30 END ATOM
M  V30 BEGIN BOND
M  V30 1 1 1 2
M  V30 2 1 1 3
M  V30 3 1 1 4
M  V30 4 1 1 5
M  V30 5 1 6 7
M  V30 6 1 6 8
M  V30 7 1 6 9
M  V30 8 1 6 10
M  V30 9 1 11 12
M  V30 10 1 11 13
M  V30 11 1 11 14
M  V30 12 1 11 15
M  V30 13 1 16 17
M  V30 14 1 16 18
M  V30 15 1 16 19
M  V30 16 1 16 20
M  V30 17 1 21 22
M  V30 18 1 21 23
M  V30 19 1 21 24
M  V30 20 1 21 25
M  V30 21 1 26 27
M  V30 22 1 26 28
M  V30 23 1 26 29
M  V30 24 1 26 30
M  V30 25 1 31 32
M  V30 26 1 31 33
M  V30 27 1 31 34
M  V30 28 1 31 35
M  V30 29 1 36 37
M  V30 30 1 36 38
M  V30 31 1 36 39
M  V30 32 1 36 40
M  V30 33 1 41 42
M  V30 34 1 41 43
M  V30 35 1 41 44
M  V30 36 1 41 45
M  V30 37 1 46 47
M  V30 38 1 47 48
M  V30 39 1 49 50
M  V30 40 1 50 51
M  V30 41 1 52 53
M  V30 42 1 53 54
M  V30 43 1 55 56
M  V30 44 1 56 57
M  V30 45 1 58 59
M  V30 46 1 59 60
M  V30 47 1 61 62
M  V30 48 1 62 63
M  V30 49 1 64 65
M  V30 50 1 65 66
M  V30 51 1 67 68
M  V30 52 1 68 69
M  V30 53 1 70 71
M  V30 54 1 71 72
M  V30 55 1 73 74
M  V30 56 1 74 75
M  V30 57 1 76 77
M  V30 58 1 77 78
M  V30 59 1 79 80
M  V30 60 1 80 81
M  V30 61 1 82 83
M  V30 62 1 83 84
M  V30 63 1 85 86
M  V30 64 1 86 87
M  V30 65 1 88 89
M  V30 66 1 89 90
M  V30 67 1 91 92
M  V30 68 1 92 93
M  V30 69 1 94 95
M  V30 70 1 95 96
M  V30 71 1 97 98
M  V30 72 1 98 99
M  V30 73 1 2 49
M  V30 74 1 3 94
M  V30 75 1 4 46
M  V30 76 1 5 55
M  V30 77 1 7 85
M  V30 78 1 8 96
M  V30 79 1 9 79
M  V30 80 1 10 91
M  V30 81 1 12 76
M  V30 82 1 13 97
M  V30 83 1 14 82
M  V30 84 1 15 64
M  V30 85 1 17 78
M  V30 86 1 18 99
M  V30 87 1 19 66
M  V30 88 1 20 61
M  V30 89 1 22 67
M  V30 90 1 23 73
M  V30 91 1 24 88
M  V30 92 1 25 52
M  V30 93 1 27 70
M  V30 94 1 28 58
M  V30 95 1 29 87
M  V30 96 1 30 51
M  V30 97 1 32 84
M  V30 98 1 33 72
M  V30 99 1 34 60
M  V30 100 1 35 54
M  V30 101 1 37 57
M  V30 102 1 38 69
M  V30 103 1 39 90
M  V30 104 1 40 48
M  V30 105 1 42 75
M  V30 106 1 43 63
M  V30 107 1 44 81
M  V30 108 1 45 93
M  V30 END BOND
M  V30 END CTAB
M  END

$$$$
