
     RDKit          3D

  0  0  0  0  0  0  0  0  0  0999 V3000
M  V30 BEGIN CTAB
M  V30 COUNTS 99 108 0 0 0
M  V30 BEGIN ATOM
M  V30 1 Pd -1.6376 -0.1006 -3.6469 0
M  V30 2 Pb -1.2897 0.4721 -4.3938 0
M  V30 3 Pb -1.0493 0.4112 -3.0212 0
M  V30 4 Pb -2.1628 -0.6814 -4.2694 0
M  V30 5 Pb -2.0355 -0.6349 -2.8988 0
M  V30 6 Pd -1.9593 5.1023 5.3754 0
M  V30 7 Pb -1.7111 4.3424 5.9829 0
M  V30 8 Pb -1.0006 5.3723 5.2721 0
M  V30 9 Pb -2.9071 4.7934 5.3161 0
M  V30 10 Pb -2.2091 5.8886 4.8129 0
M  V30 11 Pd 5.1216 -1.2590 0.8161 0
M  V30 12 Pb 5.4279 -1.4987 -0.1023 0
M  V30 13 Pb 4.8426 -0.9860 1.7386 0
M  V30 14 Pb 5.2019 -2.2168 1.0954 0
M  V30 15 Pb 4.9681 -0.3338 0.4619 0
M  V30 16 Pd 1.7627 -5.4211 0.1287 0
M  V30 17 Pb 2.6964 -5.2946 0.4755 0
M  V30 18 Pb 2.0973 -5.6619 -0.7834 0
M  V30 19 Pb 1.4156 -5.2084 1.0411 0
M  V30 20 Pb 0.8258 -5.5537 -0.2023 0
M  V30 21 Pd -0.4414 -0.5324 5.9096 0
M  V30 22 Pb -0.6237 0.3415 6.3687 0
M  V30 23 Pb 0.5353 -0.3321 5.8495 0
M  V30 24 Pb -0.2639 -1.4227 5.4916 0
M  V30 25 Pb -1.4135 -0.7521 5.8638 0
M  V30 26 Pd -0.5013 -4.9455 -4.6341 0
M  V30 27 Pb 0.3573 -5.3739 -4.3485 0
M  V30 28 Pb -0.0652 -4.6169 -5.4688 0
M  V30 29 Pb -1.3300 -4.4526 -4.9080 0
M  V30 30 Pb -0.9111 -5.2279 -3.7668 0
M  V30 31 Pd 3.1508 0.8838 -5.6958 0
M  V30 32 Pb 2.2933 1.3578 -5.8910 0
M  V30 33 Pb 2.9296 0.2258 -6.4101 0
M  V30 34 Pb 3.3380 1.4444 -4.8867 0
M  V30 35 Pb 3.9352 0.3289 -5.4328 0
M  V30 36 Pd -5.1107 0.5722 0.7466 0
M  V30 37 Pb -5.1977 -0.0617 1.5112 0
M  V30 38 Pb -4.9286 1.2724 0.0567 0
M  V30 39 Pb -5.4582 1.2672 1.3757 0
M  V30 40 Pb -4.6714 -0.1368 0.1899 0
M  V30 41 Pd -0.3667 5.8326 0.9108 0
M  V30 42 Pb 0.2581 5.9467 1.6875 0
M  V30 43 Pb 0.1544 5.0657 0.5456 0
M  V30 44 Pb -1.0563 5.6343 0.2148 0
M  V30 45 Pb -0.9445 6.5406 1.3043 0
M  V30 46 Ag -2.1185 -0.9511 5.7138 0
M  V30 47 Fe -3.7819 -0.8037 4.0300 0
M  V30 48 Ag -5.1885 -0.4379 2.1563 0
M  V30 49 Ag 1.1610 -5.0669 1.7314 0
M  V30 50 Fe 0.5143 -3.5565 3.4452 0
M  V30 51 Ag -0.1474 -2.1045 5.2032 0
M  V30 52 Ag 4.8254 0.3114 0.1011 0
M  V30 53 Fe 4.1695 1.1854 -2.0115 0
M  V30 54 Ag 3.5051 1.7563 -4.2228 0
M  V30 55 Ag 5.6412 -1.6012 -0.8108 0
M  V30 56 Fe 5.1837 -0.9517 -3.0440 0
M  V30 57 Ag 4.4619 -0.1098 -5.1387 0
M  V30 58 Ag -3.5964 4.5607 5.1377 0
M  V30 59 Fe -4.7574 3.1884 3.5864 0
M  V30 60 Ag -5.6448 1.7447 1.9230 0
M  V30 61 Ag -4.7265 1.8443 -0.3839 0
M  V30 62 Fe -3.2166 3.6747 -0.4759 0
M  V30 63 Ag -1.5906 5.3905 -0.2512 0
M  V30 64 Ag -0.5671 0.7822 -2.5825 0
M  V30 65 Fe -0.0050 2.5993 -1.1630 0
M  V30 66 Ag 0.4570 4.4525 0.2456 0
M  V30 67 Ag 0.2731 -4.2981 -6.0533 0
M  V30 68 Fe 1.5168 -2.3743 -6.6594 0
M  V30 69 Ag 2.7159 -0.3393 -6.8466 0
M  V30 70 Ag 4.6455 -0.7669 2.4302 0
M  V30 71 Fe 2.9943 -0.4731 4.1128 0
M  V30 72 Ag 1.2657 -0.2240 5.7231 0
M  V30 73 Ba -1.5269 3.8112 6.4851 0
M  V30 74 Ga -1.1443 2.3836 6.5542 0
M  V30 75 Ba -0.7534 0.9716 6.7611 0
M  V30 76 Ba -1.0362 0.9449 -4.9230 0
M  V30 77 Ga 0.2821 1.3042 -5.4849 0
M  V30 78 Ba 1.6134 1.6411 -6.0299 0
M  V30 79 Ba 2.3125 -5.8613 -1.4747 0
M  V30 80 Ga 1.6755 -5.7696 -2.8036 0
M  V30 81 Ba 1.0114 -5.6628 -4.1182 0
M  V30 82 Ba -2.3711 6.4786 4.3820 0
M  V30 83 Ga -1.9276 6.8204 3.0239 0
M  V30 84 Ba -1.3936 7.0092 1.6689 0
M  V30 85 Ba -0.3015 5.5744 5.0823 0
M  V30 86 Ga 0.2472 5.8104 3.7285 0
M  V30 87 Ba 0.6595 6.0129 2.3218 0
M  V30 88 Ba 0.1248 -5.6601 -0.4538 0
M  V30 89 Ga -0.5410 -5.5483 -1.7674 0
M  V30 90 Ba -1.1775 -5.4269 -3.0945 0
M  V30 91 Ba 5.2347 -2.9501 1.2549 0
M  V30 92 Ga 4.3107 -4.0796 1.0149 0
M  V30 93 Ba 3.3842 -5.2063 0.7720 0
M  V30 94 Ba -2.5354 -1.1840 -4.6844 0
M  V30 95 Ga -2.2617 -2.6142 -4.9350 0
M  V30 96 Ba -1.9144 -4.0364 -5.1349 0
M  V30 97 Ba -2.3788 -1.0553 -2.3786 0
M  V30 98 Ga -3.3425 -0.8396 -1.2784 0
M  V30 99 Ba -4.3057 -0.6899 -0.1670 0
M  V30 END ATOM
M  V30 BEGIN BOND
M  V30 1 1 1 2
M  V30 2 1 1 3
M  V30 3 1 1 4
M  V30 4 1 1 5
M  V30 5 1 6 7
M  V30 6 1 6 8
M  V30 7 1 6 9
M  V30 8 1 6 10
M  V30 9 1 11 12
M  V30 10 1 11 13
M  V30 11 1 11 14
M  V30 12 1 11 15
M  V30 13 1 16 17
M  V30 14 1 16 18
M  V30 15 1 16 19
M  V30 16 1 16 20
M  V30 17 1 21 22
M  V30 18 1 21 23
M  V30 19 1 21 24
M  V30 20 1 21 25
M  V30 21 1 26 27
M  V30 22 1 26 28
M  V30 23 1 26 29
M  V30 24 1 26 30
M  V30 25 1 31 32
M  V30 26 1 31 33
M  V30 27 1 31 34
M  V30 28 1 31 35
M  V30 29 1 36 37
M  V30 30 1 36 38
M  V30 31 1 36 39
M  V30 32 1 36 40
M  V30 33 1 41 42
M  V30 34 1 41 43
M  V30 35 1 41 44
M  V30 36 1 41 45
M  V30 37 1 46 47
M  V30 38 1 47 48
M  V30 39 1 49 50
M  V30 40 1 50 51
M  V30 41 1 52 53
M  V30 42 1 53 54
M  V30 43 1 55 56
M  V30 44 1 56 57
M  V30 45 1 58 59
M  V30 46 1 59 60
M  V30 47 1 61 62
M  V30 48 1 62 63
M  V30 49 1 64 65
M  V30 50 1 65 66
M  V30 51 1 67 68
M  V30 52 1 68 69
M  V30 53 1 70 71
M  V30 54 1 71 72
M  V30 55 1 73 74
M  V30 56 1 74 75
M  V30 57 1 76 77
M  V30 58 1 77 78
M  V30 59 1 79 80
M  V30 60 1 80 81
M  V30 61 1 82 83
M  V30 62 1 83 84
M  V30 63 1 85 86
M  V30 64 1 86 87
M  V30 65 1 88 89
M  V30 66 1 89 90
M  V30 67 1 91 92
M  V30 68 1 92 93
M  V30 69 1 94 95
M  V30 70 1 95 96
M  V30 71 1 97 98
M  V30 72 1 98 99
M  V30 73 1 2 76
M  V30 74 1 3 64
M  V30 75 1 4 94
M  V30 76 1 5 97
M  V30 77 1 7 73
M  V30 78 1 8 85
M  V30 79 1 9 58
M  V30 80 1 10 82
M  V30 81 1 12 55
M  V30 82 1 13 70
M  V30 83 1 14 91
M  V30 84 1 15 52
M  V30 85 1 17 93
M  V30 86 1 18 79
M  V30 87 1 19 49
M  V30 88 1 20 88
M  V30 89 1 22 75
M  V30 90 1 23 72
M  V30 91 1 24 51
M  V30 92 1 25 46
M  V30 93 1 27 81
M  V30 94 1 28 67
M  V30 95 1 29 96
M  V30 96 1 30 90
M  V30 97 1 32 78
M  V30 98 1 33 69
M  V30 99 1 34 54
M  V30 100 1 35 57
M  V30 101 1 37 48
M  V30 102 1 38 61
M  V30 103 1 39 60
M  V30 104 1 40 99
M  V30 105 1 42 87
M  V30 106 1 43 66
M  V30 107 1 44 63
M  V30 108 1 45 84
M  V30 END BOND
M  V30 END CTAB
M  END

$$$$
