
     RDKit          3D

  0  0  0  0  0  0  0  0  0  0999 V3000
M  V30 BEGIN CTAB
M  V30 COUNTS 99 108 0 0 0
M  V30 BEGIN ATOM
M  V30 1 Pd -3.3278 -4.3815 0.9544 0
M  V30 2 Pb -4.0693 -4.0281 1.5249 0
M  V30 3 Pb -2.7509 -4.4737 1.7657 0
M  V30 4 Pb -3.9268 -4.3172 0.1570 0
M  V30 5 Pb -2.5691 -4.6813 0.3756 0
M  V30 6 Pd 7.8634 -0.3491 4.4286 0
M  V30 7 Pb 7.4776 0.5134 4.1030 0
M  V30 8 Pb 8.1758 -1.2499 4.7095 0
M  V30 9 Pb 8.2614 -0.5478 3.5378 0
M  V30 10 Pb 7.2694 -0.3475 5.2333 0
M  V30 11 Pd -1.1239 5.7411 -0.3958 0
M  V30 12 Pb -1.1251 4.9952 0.2801 0
M  V30 13 Pb -0.1765 6.0023 -0.1993 0
M  V30 14 Pb -1.2204 6.4240 -1.1152 0
M  V30 15 Pb -2.0650 5.5091 -0.5944 0
M  V30 16 Pd -2.5047 4.5676 -5.2300 0
M  V30 17 Pb -2.5418 5.4072 -4.6827 0
M  V30 18 Pb -2.4069 3.7926 -5.8379 0
M  V30 19 Pb -1.5185 4.7032 -5.2935 0
M  V30 20 Pb -3.4925 4.3288 -5.0863 0
M  V30 21 Pd 3.7728 3.5408 -1.0474 0
M  V30 22 Pb 4.2481 3.3708 -0.1824 0
M  V30 23 Pb 3.4797 4.4264 -0.6880 0
M  V30 24 Pb 3.3496 3.7725 -1.9230 0
M  V30 25 Pb 3.9983 2.6317 -1.4038 0
M  V30 26 Pd -6.5204 0.2421 -4.0379 0
M  V30 27 Pb -5.9512 0.0002 -4.8108 0
M  V30 28 Pb -7.1445 0.4063 -3.2706 0
M  V30 29 Pb -6.5632 -0.7267 -3.8049 0
M  V30 30 Pb -6.3594 1.2374 -4.2310 0
M  V30 31 Pd -5.8961 0.3877 1.1106 0
M  V30 32 Pb -5.9332 -0.4730 1.6222 0
M  V30 33 Pb -6.7652 0.2171 0.6524 0
M  V30 34 Pb -5.8806 1.2387 0.6060 0
M  V30 35 Pb -5.0011 0.6450 1.4934 0
M  V30 36 Pd 4.3044 -4.2439 -0.3898 0
M  V30 37 Pb 4.2863 -3.4173 -0.9552 0
M  V30 38 Pb 4.3112 -5.0717 0.1808 0
M  V30 39 Pb 5.2339 -3.9636 -0.1404 0
M  V30 40 Pb 3.3789 -4.5006 -0.6716 0
M  V30 41 Pd 3.5013 -5.4473 4.7801 0
M  V30 42 Pb 4.4854 -5.5452 4.8873 0
M  V30 43 Pb 2.5113 -5.3332 4.6992 0
M  V30 44 Pb 3.5389 -6.0645 3.9939 0
M  V30 45 Pb 3.5506 -4.7221 5.4721 0
M  V30 46 Ag 7.1535 1.1376 3.8438 0
M  V30 47 Fe 5.8866 2.2020 2.1389 0
M  V30 48 Ag 4.6206 3.3208 0.4686 0
M  V30 49 Ag 4.1145 1.9501 -1.7001 0
M  V30 50 Fe 4.2166 -0.4179 -1.5163 0
M  V30 51 Ag 4.3266 -2.7878 -1.3641 0
M  V30 52 Ag -0.7725 4.7494 -5.2816 0
M  V30 53 Fe 1.1687 4.3830 -3.9659 0
M  V30 54 Ag 3.0527 3.9848 -2.5781 0
M  V30 55 Ag -2.4104 3.1809 -6.2482 0
M  V30 56 Fe -3.7483 1.2518 -6.2078 0
M  V30 57 Ag -5.4778 -0.0953 -5.3668 0
M  V30 58 Ag -2.7654 5.3153 -0.7288 0
M  V30 59 Fe -4.4064 3.6668 -0.3254 0
M  V30 60 Ag -5.8402 1.8775 0.2368 0
M  V30 61 Ag 6.7472 -0.5164 5.7464 0
M  V30 62 Fe 5.1328 -2.2394 6.0352 0
M  V30 63 Ag 3.6924 -4.1291 5.9155 0
M  V30 64 Ag 8.2881 -1.9663 4.8699 0
M  V30 65 Fe 6.9672 -3.9232 4.9966 0
M  V30 66 Ag 5.2218 -5.5186 4.9883 0
M  V30 67 Ag -1.2259 4.4035 0.7422 0
M  V30 68 Fe -2.7123 2.6256 1.3049 0
M  V30 69 Ag -4.3297 0.9209 1.7107 0
M  V30 70 Ag 8.4185 -0.8620 2.8787 0
M  V30 71 Fe 7.2860 -2.2675 1.3347 0
M  V30 72 Ag 5.9112 -3.6607 -0.0121 0
M  V30 73 Ag -4.3970 -4.2657 -0.4242 0
M  V30 74 Fe -5.4971 -2.9136 -2.0346 0
M  V30 75 Ag -6.5230 -1.4402 -3.5864 0
M  V30 76 Ag -1.9888 -4.8749 -0.0588 0
M  V30 77 Fe 0.3491 -4.8017 -0.4744 0
M  V30 78 Ag 2.6893 -4.7180 -0.8745 0
M  V30 79 Ag -2.3391 -4.5573 2.3866 0
M  V30 80 Fe -0.2647 -4.8958 3.4917 0
M  V30 81 Ag 1.7688 -5.2322 4.6712 0
M  V30 82 Ba -4.6184 -3.7374 1.9452 0
M  V30 83 Ga -5.2981 -2.4270 1.9769 0
M  V30 84 Ba -5.9778 -1.1166 2.0088 0
M  V30 85 Ba -4.2405 4.1528 -4.9766 0
M  V30 86 Ga -5.1785 3.0136 -4.6736 0
M  V30 87 Ba -6.2445 1.9909 -4.3781 0
M  V30 88 Ba -1.4176 6.8686 -1.6833 0
M  V30 89 Ga -1.9443 6.5003 -3.0129 0
M  V30 90 Ba -2.4682 6.0660 -4.3238 0
M  V30 91 Ba 4.2492 -5.7116 0.5782 0
M  V30 92 Ga 3.9452 -6.0976 1.9744 0
M  V30 93 Ba 3.6437 -6.4748 3.3736 0
M  V30 94 Ba -7.6363 0.4145 -2.6998 0
M  V30 95 Ga -7.5423 0.3060 -1.2298 0
M  V30 96 Ba -7.3863 0.2032 0.2353 0
M  V30 97 Ba 0.5291 6.2197 -0.0555 0
M  V30 98 Ga 1.8793 5.6498 -0.2341 0
M  V30 99 Ba 3.2283 5.0773 -0.4137 0
M  V30 END ATOM
M  V30 BEGIN BOND
M  V30 1 1 1 2
M  V30 2 1 1 3
M  V30 3 1 1 4
M  V30 4 1 1 5
M  V30 5 1 6 7
M  V30 6 1 6 8
M  V30 7 1 6 9
M  V30 8 1 6 10
M  V30 9 1 11 12
M  V30 10 1 11 13
M  V30 11 1 11 14
M  V30 12 1 11 15
M  V30 13 1 16 17
M  V30 14 1 16 18
M  V30 15 1 16 19
M  V30 16 1 16 20
M  V30 17 1 21 22
M  V30 18 1 21 23
M  V30 19 1 21 24
M  V30 20 1 21 25
M  V30 21 1 26 27
M  V30 22 1 26 28
M  V30 23 1 26 29
M  V30 24 1 26 30
M  V30 25 1 31 32
M  V30 26 1 31 33
M  V30 27 1 31 34
M  V30 28 1 31 35
M  V30 29 1 36 37
M  V30 30 1 36 38
M  V30 31 1 36 39
M  V30 32 1 36 40
M  V30 33 1 41 42
M  V30 34 1 41 43
M  V30 35 1 41 44
M  V30 36 1 41 45
M  V30 37 1 46 47
M  V30 38 1 47 48
M  V30 39 1 49 50
M  V30 40 1 50 51
M  V30 41 1 52 53
M  V30 42 1 53 54
M  V30 43 1 55 56
M  V30 44 1 56 57
M  V30 45 1 58 59
M  V30 46 1 59 60
M  V30 47 1 61 62
M  V30 48 1 62 63
M  V30 49 1 64 65
M  V30 50 1 65 66
M  V30 51 1 67 68
M  V30 52 1 68 69
M  V30 53 1 70 71
M  V30 54 1 71 72
M  V30 55 1 73 74
M  V30 56 1 74 75
M  V30 57 1 76 77
M  V30 58 1 77 78
M  V30 59 1 79 80
M  V30 60 1 80 81
M  V30 61 1 82 83
M  V30 62 1 83 84
M  V30 63 1 85 86
M  V30 64 1 86 87
M  V30 65 1 88 89
M  V30 66 1 89 90
M  V30 67 1 91 92
M  V30 68 1 92 93
M  V30 69 1 94 95
M  V30 70 1 95 96
M  V30 71 1 97 98
M  V30 72 1 98 99
M  V30 73 1 2 82
M  V30 74 1 3 79
M  V30 75 1 4 73
M  V30 76 1 5 76
M  V30 77 1 7 46
M  V30 78 1 8 64
M  V30 79 1 9 70
M  V30 80 1 10 61
M  V30 81 1 12 67
M  V30 82 1 13 97
M  V30 83 1 14 88
M  V30 84 1 15 58
M  V30 85 1 17 90
M  V30 86 1 18 55
M  V30 87 1 19 52
M  V30 88 1 20 85
M  V30 89 1 22 48
M  V30 90 1 23 99
M  V30 91 1 24 54
M  V30 92 1 25 49
M  V30 93 1 27 57
M  V30 94 1 28 94
M  V30 95 1 29 75
M  V30 96 1 30 87
M  V30 97 1 32 84
M  V30 98 1 33 96
M  V30 99 1 34 60
M  V30 100 1 35 69
M  V30 101 1 37 51
M  V30 102 1 38 91
M  V30 103 1 39 72
M  V30 104 1 40 78
M  V30 105 1 42 66
M  V30 106 1 43 81
M  V30 107 1 44 93
M  V30 108 1 45 63
M  V30 END BOND
M  V30 END CTAB
M  END

$$$$
