
     RDKit          3D

  0  0  0  0  0  0  0  0  0  0999 V3000
M  V30 BEGIN CTAB
M  V30 COUNTS 99 108 0 0 0
M  V30 BEGIN ATOM
M  V30 1 Pd -7.6358 0.2490 -5.0755 0
M  V30 2 Pb -7.1032 0.9763 -4.6426 0
M  V30 3 Pb -8.1200 0.0370 -4.2254 0
M  V30 4 Pb -8.1715 -0.4697 -5.5092 0
M  V30 5 Pb -7.0065 0.1890 -5.8597 0
M  V30 6 Pd 5.8892 1.1920 1.7309 0
M  V30 7 Pb 5.7332 1.8617 2.4618 0
M  V30 8 Pb 5.3804 1.7224 1.0465 0
M  V30 9 Pb 6.4156 0.7163 2.4373 0
M  V30 10 Pb 6.0822 0.5163 1.0071 0
M  V30 11 Pd -5.6769 -4.0121 -5.7615 0
M  V30 12 Pb -4.7352 -4.1944 -5.4774 0
M  V30 13 Pb -6.0540 -4.4618 -4.9505 0
M  V30 14 Pb -5.3972 -3.3048 -6.4215 0
M  V30 15 Pb -6.6151 -3.8455 -6.0515 0
M  V30 16 Pd 4.8443 -4.0193 0.2289 0
M  V30 17 Pb 4.3853 -4.6528 0.8585 0
M  V30 18 Pb 5.6645 -4.1631 0.7722 0
M  V30 19 Pb 5.3002 -3.2753 -0.2627 0
M  V30 20 Pb 4.0363 -3.9802 -0.3596 0
M  V30 21 Pd 5.5949 -3.7839 6.9244 0
M  V30 22 Pb 4.9489 -4.4698 6.5875 0
M  V30 23 Pb 4.8682 -3.2292 7.3274 0
M  V30 24 Pb 6.2259 -3.0168 6.9710 0
M  V30 25 Pb 6.3039 -4.2448 6.4050 0
M  V30 26 Pd 2.1783 2.8843 5.6011 0
M  V30 27 Pb 3.1641 2.9534 5.4478 0
M  V30 28 Pb 2.0930 3.7317 5.0856 0
M  V30 29 Pb 1.1803 2.8355 5.6563 0
M  V30 30 Pb 2.2664 2.0497 6.1493 0
M  V30 31 Pd -1.1994 -1.2059 -4.0792 0
M  V30 32 Pb -0.6241 -1.9426 -3.7258 0
M  V30 33 Pb -1.7136 -1.2180 -3.2223 0
M  V30 34 Pb -1.4568 -2.1570 -4.2522 0
M  V30 35 Pb -1.3729 -0.2243 -4.1715 0
M  V30 36 Pd -3.9224 3.2837 1.0873 0
M  V30 37 Pb -4.2433 3.3465 0.1423 0
M  V30 38 Pb -3.9229 2.2912 0.9937 0
M  V30 39 Pb -3.8473 4.2790 1.0932 0
M  V30 40 Pb -3.5860 3.2106 2.0289 0
M  V30 41 Pd -0.0079 5.6047 -0.9324 0
M  V30 42 Pb -0.8686 6.0324 -0.6529 0
M  V30 43 Pb 0.8555 5.1402 -1.1399 0
M  V30 44 Pb -0.4403 5.1674 -1.7213 0
M  V30 45 Pb 0.4116 5.9804 -0.1131 0
M  V30 46 Ag 4.0949 -5.0481 1.4321 0
M  V30 47 Fe 4.1647 -5.1558 3.8088 0
M  V30 48 Ag 4.5310 -4.9145 6.1479 0
M  V30 49 Ag 0.4299 2.8271 5.6283 0
M  V30 50 Fe -1.4797 2.9756 4.2205 0
M  V30 51 Ag -3.3254 3.1351 2.7309 0
M  V30 52 Ag 5.0289 2.1065 0.5007 0
M  V30 53 Fe 3.2602 3.4437 -0.3610 0
M  V30 54 Ag 1.5069 4.7814 -1.2529 0
M  V30 55 Ag 4.3385 -2.7524 7.5595 0
M  V30 56 Fe 3.2978 -0.6649 7.1065 0
M  V30 57 Ag 2.3153 1.4333 6.5780 0
M  V30 58 Ag 2.0407 4.3604 4.6884 0
M  V30 59 Fe 1.4079 5.3785 2.6458 0
M  V30 60 Ag 0.7109 6.1925 0.5340 0
M  V30 61 Ag -6.7134 1.5309 -4.3217 0
M  V30 62 Fe -5.5952 2.4542 -2.4409 0
M  V30 63 Ag -4.4731 3.3927 -0.5700 0
M  V30 64 Ag 6.7727 0.4702 3.0521 0
M  V30 65 Fe 6.8414 -0.9271 4.9712 0
M  V30 66 Ag 6.6782 -2.4553 6.7810 0
M  V30 67 Ag 3.4417 -4.0327 -0.8147 0
M  V30 68 Fe 1.6368 -3.2048 -2.1171 0
M  V30 69 Ag -0.1952 -2.4912 -3.4492 0
M  V30 70 Ag 6.2248 -4.3424 1.2276 0
M  V30 71 Fe 6.7602 -4.5217 3.5233 0
M  V30 72 Ag 6.7768 -4.4823 5.8864 0
M  V30 73 Ag -8.3399 -0.3977 -3.6581 0
M  V30 74 Fe -7.6678 -2.6596 -3.4669 0
M  V30 75 Ag -6.4544 -4.5045 -4.3205 0
M  V30 76 Ag -1.4864 0.5163 -4.2229 0
M  V30 77 Fe -1.1474 2.6786 -3.2986 0
M  V30 78 Ag -0.7527 4.7943 -2.2925 0
M  V30 79 Ag -2.0916 -1.2110 -2.5753 0
M  V30 80 Fe -3.0221 0.0831 -0.8175 0
M  V30 81 Ag -3.8748 1.5646 0.8278 0
M  V30 82 Ba 6.2230 0.0612 0.4163 0
M  V30 83 Ga 5.9319 -1.3146 -0.0547 0
M  V30 84 Ba 5.6613 -2.6839 -0.5560 0
M  V30 85 Ba -6.5156 -0.0019 -6.4076 0
M  V30 86 Ga -5.8651 -1.3171 -6.6759 0
M  V30 87 Ba -5.2811 -2.6800 -6.8383 0
M  V30 88 Ba 5.7059 2.3087 3.0686 0
M  V30 89 Ga 4.7719 2.6736 4.1553 0
M  V30 90 Ba 3.8819 3.0767 5.2652 0
M  V30 91 Ba -4.0319 -4.3539 -5.2696 0
M  V30 92 Ga -2.8456 -3.5981 -4.8251 0
M  V30 93 Ba -1.6411 -2.8734 -4.3778 0
M  V30 94 Ba -3.7499 5.0152 1.0000 0
M  V30 95 Ga -2.6490 5.7264 0.3236 0
M  V30 96 Ba -1.4977 6.3316 -0.3718 0
M  V30 97 Ba -8.5260 -1.0422 -5.8284 0
M  V30 98 Ga -8.0032 -2.3890 -6.0808 0
M  V30 99 Ba -7.3122 -3.6714 -6.2502 0
M  V30 END ATOM
M  V30 BEGIN BOND
M  V30 1 1 1 2
M  V30 2 1 1 3
M  V30 3 1 1 4
M  V30 4 1 1 5
M  V30 5 1 6 7
M  V30 6 1 6 8
M  V30 7 1 6 9
M  V30 8 1 6 10
M  V30 9 1 11 12
M  V30 10 1 11 13
M  V30 11 1 11 14
M  V30 12 1 11 15
M  V30 13 1 16 17
M  V30 14 1 16 18
M  V30 15 1 16 19
M  V30 16 1 16 20
M  V30 17 1 21 22
M  V30 18 1 21 23
M  V30 19 1 21 24
M  V30 20 1 21 25
M  V30 21 1 26 27
M  V30 22 1 26 28
M  V30 23 1 26 29
M  V30 24 1 26 30
M  V30 25 1 31 32
M  V30 26 1 31 33
M  V30 27 1 31 34
M  V30 28 1 31 35
M  V30 29 1 36 37
M  V30 30 1 36 38
M  V30 31 1 36 39
M  V30 32 1 36 40
M  V30 33 1 41 42
M  V30 34 1 41 43
M  V30 35 1 41 44
M  V30 36 1 41 45
M  V30 37 1 46 47
M  V30 38 1 47 48
M  V30 39 1 49 50
M  V30 40 1 50 51
M  V30 41 1 52 53
M  V30 42 1 53 54
M  V30 43 1 55 56
M  V30 44 1 56 57
M  V30 45 1 58 59
M  V30 46 1 59 60
M  V30 47 1 61 62
M  V30 48 1 62 63
M  V30 49 1 64 65
M  V30 50 1 65 66
M  V30 51 1 67 68
M  V30 52 1 68 69
M  V30 53 1 70 71
M  V30 54 1 71 72
M  V30 55 1 73 74
M  V30 56 1 74 75
M  V30 57 1 76 77
M  V30 58 1 77 78
M  V30 59 1 79 80
M  V30 60 1 80 81
M  V30 61 1 82 83
M  V30 62 1 83 84
M  V30 63 1 85 86
M  V30 64 1 86 87
M  V30 65 1 88 89
M  V30 66 1 89 90
M  V30 67 1 91 92
M  V30 68 1 92 93
M  V30 69 1 94 95
M  V30 70 1 95 96
M  V30 71 1 97 98
M  V30 72 1 98 99
M  V30 73 1 2 61
M  V30 74 1 3 73
M  V30 75 1 4 97
M  V30 76 1 5 85
M  V30 77 1 7 88
M  V30 78 1 8 52
M  V30 79 1 9 64
M  V30 80 1 10 82
M  V30 81 1 12 91
M  V30 82 1 13 75
M  V30 83 1 14 87
M  V30 84 1 15 99
M  V30 85 1 17 46
M  V30 86 1 18 70
M  V30 87 1 19 84
M  V30 88 1 20 67
M  V30 89 1 22 48
M  V30 90 1 23 55
M  V30 91 1 24 66
M  V30 92 1 25 72
M  V30 93 1 27 90
M  V30 94 1 28 58
M  V30 95 1 29 49
M  V30 96 1 30 57
M  V30 97 1 32 69
M  V30 98 1 33 79
M  V30 99 1 34 93
M  V30 100 1 35 76
M  V30 101 1 37 63
M  V30 102 1 38 81
M  V30 103 1 39 94
M  V30 104 1 40 51
M  V30 105 1 42 96
M  V30 106 1 43 54
M  V30 107 1 44 78
M  V30 108 1 45 60
M  V30 END BOND
M  V30 END CTAB
M  END

$$$$
