
     RDKit          3D

  0  0  0  0  0  0  0  0  0  0999 V3000
M  V30 BEGIN CTAB
M  V30 COUNTS 99 108 0 0 0
M  V30 BEGIN ATOM
M  V30 1 Pd 2.3446 -2.1361 3.0947 0
M  V30 2 Pb 2.1499 -1.8108 4.0226 0
M  V30 3 Pb 1.4442 -2.5671 3.0903 0
M  V30 4 Pb 3.2734 -1.7596 3.1131 0
M  V30 5 Pb 2.5038 -2.4572 2.1600 0
M  V30 6 Pd -5.4648 -5.4422 -4.8838 0
M  V30 7 Pb -5.5430 -4.4485 -4.9702 0
M  V30 8 Pb -5.3843 -6.4253 -4.7609 0
M  V30 9 Pb -4.6955 -5.5103 -5.5181 0
M  V30 10 Pb -6.0605 -5.4297 -4.0802 0
M  V30 11 Pd -1.7380 5.4464 2.0073 0
M  V30 12 Pb -1.1308 5.6934 2.7608 0
M  V30 13 Pb -2.3621 5.2154 1.2604 0
M  V30 14 Pb -1.4782 6.2756 1.5075 0
M  V30 15 Pb -1.9798 4.6050 2.4982 0
M  V30 16 Pd 2.4040 6.8406 -1.1807 0
M  V30 17 Pb 1.5655 7.3113 -0.9011 0
M  V30 18 Pb 2.8985 7.2038 -0.3915 0
M  V30 19 Pb 1.9459 6.4459 -1.9770 0
M  V30 20 Pb 3.2419 6.3418 -1.4044 0
M  V30 21 Pd -2.6401 1.8679 -4.5888 0
M  V30 22 Pb -3.4016 1.2215 -4.6359 0
M  V30 23 Pb -3.1612 2.4772 -3.9942 0
M  V30 24 Pb -1.8973 2.5377 -4.5959 0
M  V30 25 Pb -2.0803 1.2094 -5.0871 0
M  V30 26 Pd 7.1426 3.7566 3.0360 0
M  V30 27 Pb 6.9040 4.7260 3.0278 0
M  V30 28 Pb 6.9379 3.7052 4.0094 0
M  V30 29 Pb 7.2165 2.7611 3.0209 0
M  V30 30 Pb 7.1969 3.8086 2.0399 0
M  V30 31 Pd 0.7512 2.5414 5.7465 0
M  V30 32 Pb 0.8614 1.5614 5.9254 0
M  V30 33 Pb 1.6449 2.6945 6.1637 0
M  V30 34 Pb -0.1321 2.4074 5.2923 0
M  V30 35 Pb 0.6798 3.5215 5.5640 0
M  V30 36 Pd -0.1782 -5.2340 -3.6965 0
M  V30 37 Pb -0.1748 -4.3972 -4.2443 0
M  V30 38 Pb -0.1221 -6.0713 -3.1374 0
M  V30 39 Pb -0.8102 -5.5993 -4.3919 0
M  V30 40 Pb 0.4922 -4.8351 -3.0676 0
M  V30 41 Pd -2.6173 -7.6225 0.5032 0
M  V30 42 Pb -2.9372 -8.3141 -0.1348 0
M  V30 43 Pb -2.3219 -6.8877 1.1121 0
M  V30 44 Pb -1.6932 -7.7950 0.1635 0
M  V30 45 Pb -3.5711 -7.3447 0.6232 0
M  V30 46 Ag -5.6327 -3.7036 -4.9912 0
M  V30 47 Fe -4.7811 -1.4906 -4.8512 0
M  V30 48 Ag -3.9690 0.7377 -4.7180 0
M  V30 49 Ag -1.6648 0.6667 -5.3903 0
M  V30 50 Fe -0.8890 -1.5559 -5.0849 0
M  V30 51 Ag -0.1746 -3.7822 -4.6741 0
M  V30 52 Ag 1.6343 6.1308 -2.5822 0
M  V30 53 Fe 0.1257 4.5903 -3.5784 0
M  V30 54 Ag -1.3656 3.0662 -4.6246 0
M  V30 55 Ag 3.3384 7.4053 0.1809 0
M  V30 56 Fe 5.0020 6.5722 1.6548 0
M  V30 57 Ag 6.6152 5.4124 2.9531 0
M  V30 58 Ag -6.3504 -5.4952 -3.3909 0
M  V30 59 Fe -5.5574 -6.2493 -1.2818 0
M  V30 60 Ag -4.2729 -7.0946 0.5298 0
M  V30 61 Ag -5.2705 -7.1324 -4.5664 0
M  V30 62 Fe -4.2947 -8.2593 -2.7346 0
M  V30 63 Ag -3.2170 -8.7247 -0.6854 0
M  V30 64 Ag 3.8864 5.9655 -1.4815 0
M  V30 65 Fe 5.5991 4.8879 -0.2391 0
M  V30 66 Ag 7.1153 3.9063 1.3019 0
M  V30 67 Ag 3.9853 -1.5156 3.1074 0
M  V30 68 Fe 5.6111 0.2167 3.0668 0
M  V30 69 Ag 7.1645 2.0141 3.0278 0
M  V30 70 Ag 2.6167 -2.6913 1.4553 0
M  V30 71 Fe 1.7901 -3.6220 -0.5695 0
M  V30 72 Ag 1.0239 -4.5481 -2.6199 0
M  V30 73 Ag 0.7824 -2.9158 3.1125 0
M  V30 74 Fe -0.6679 -4.6199 2.3209 0
M  V30 75 Ag -2.1478 -6.3115 1.5581 0
M  V30 76 Ag 6.6584 3.6422 4.6976 0
M  V30 77 Fe 4.5686 3.2392 5.7408 0
M  V30 78 Ag 2.3369 2.8165 6.4192 0
M  V30 79 Ag -2.8253 5.0661 0.6893 0
M  V30 80 Fe -3.2207 4.0148 -1.4026 0
M  V30 81 Ag -3.4964 2.9157 -3.4890 0
M  V30 82 Ba 1.9523 -1.5970 4.7165 0
M  V30 83 Ga 1.4748 -0.3645 5.3787 0
M  V30 84 Ba 0.9936 0.8391 6.0895 0
M  V30 85 Ba -2.1485 3.9718 2.8708 0
M  V30 86 Ga -1.4753 3.1517 3.9019 0
M  V30 87 Ba -0.7900 2.3418 4.9331 0
M  V30 88 Ba -0.6885 5.8669 3.3395 0
M  V30 89 Ga -0.0191 5.0708 4.3834 0
M  V30 90 Ba 0.6415 4.2556 5.4181 0
M  V30 91 Ba -1.2911 6.8904 1.1162 0
M  V30 92 Ga -0.1758 7.2732 0.2255 0
M  V30 93 Ba 0.9402 7.6546 -0.6649 0
M  V30 94 Ba -4.0609 -5.6612 -5.8915 0
M  V30 95 Ga -2.6483 -5.7105 -5.4413 0
M  V30 96 Ba -1.2339 -5.7712 -4.9981 0
M  V30 97 Ba 0.0252 -6.6546 -2.6744 0
M  V30 98 Ga -0.5177 -7.2820 -1.4450 0
M  V30 99 Ba -1.0587 -7.9187 -0.2196 0
M  V30 END ATOM
M  V30 BEGIN BOND
M  V30 1 1 1 2
M  V30 2 1 1 3
M  V30 3 1 1 4
M  V30 4 1 1 5
M  V30 5 1 6 7
M  V30 6 1 6 8
M  V30 7 1 6 9
M  V30 8 1 6 10
M  V30 9 1 11 12
M  V30 10 1 11 13
M  V30 11 1 11 14
M  V30 12 1 11 15
M  V30 13 1 16 17
M  V30 14 1 16 18
M  V30 15 1 16 19
M  V30 16 1 16 20
M  V30 17 1 21 22
M  V30 18 1 21 23
M  V30 19 1 21 24
M  V30 20 1 21 25
M  V30 21 1 26 27
M  V30 22 1 26 28
M  V30 23 1 26 29
M  V30 24 1 26 30
M  V30 25 1 31 32
M  V30 26 1 31 33
M  V30 27 1 31 34
M  V30 28 1 31 35
M  V30 29 1 36 37
M  V30 30 1 36 38
M  V30 31 1 36 39
M  V30 32 1 36 40
M  V30 33 1 41 42
M  V30 34 1 41 43
M  V30 35 1 41 44
M  V30 36 1 41 45
M  V30 37 1 46 47
M  V30 38 1 47 48
M  V30 39 1 49 50
M  V30 40 1 50 51
M  V30 41 1 52 53
M  V30 42 1 53 54
M  V30 43 1 55 56
M  V30 44 1 56 57
M  V30 45 1 58 59
M  V30 46 1 59 60
M  V30 47 1 61 62
M  V30 48 1 62 63
M  V30 49 1 64 65
M  V30 50 1 65 66
M  V30 51 1 67 68
M  V30 52 1 68 69
M  V30 53 1 70 71
M  V30 54 1 71 72
M  V30 55 1 73 74
M  V30 56 1 74 75
M  V30 57 1 76 77
M  V30 58 1 77 78
M  V30 59 1 79 80
M  V30 60 1 80 81
M  V30 61 1 82 83
M  V30 62 1 83 84
M  V30 63 1 85 86
M  V30 64 1 86 87
M  V30 65 1 88 89
M  V30 66 1 89 90
M  V30 67 1 91 92
M  V30 68 1 92 93
M  V30 69 1 94 95
M  V30 70 1 95 96
M  V30 71 1 97 98
M  V30 72 1 98 99
M  V30 73 1 2 82
M  V30 74 1 3 73
M  V30 75 1 4 67
M  V30 76 1 5 70
M  V30 77 1 7 46
M  V30 78 1 8 61
M  V30 79 1 9 94
M  V30 80 1 10 58
M  V30 81 1 12 88
M  V30 82 1 13 79
M  V30 83 1 14 91
M  V30 84 1 15 85
M  V30 85 1 17 93
M  V30 86 1 18 55
M  V30 87 1 19 52
M  V30 88 1 20 64
M  V30 89 1 22 48
M  V30 90 1 23 81
M  V30 91 1 24 54
M  V30 92 1 25 49
M  V30 93 1 27 57
M  V30 94 1 28 76
M  V30 95 1 29 69
M  V30 96 1 30 66
M  V30 97 1 32 84
M  V30 98 1 33 78
M  V30 99 1 34 87
M  V30 100 1 35 90
M  V30 101 1 37 51
M  V30 102 1 38 97
M  V30 103 1 39 96
M  V30 104 1 40 72
M  V30 105 1 42 63
M  V30 106 1 43 75
M  V30 107 1 44 99
M  V30 108 1 45 60
M  V30 END BOND
M  V30 END CTAB
M  END

$$$$
