
     RDKit          3D

  0  0  0  0  0  0  0  0  0  0999 V3000
M  V30 BEGIN CTAB
M  V30 COUNTS 99 108 0 0 0
M  V30 BEGIN ATOM
M  V30 1 Pd -4.1067 1.2871 -1.7826 0
M  V30 2 Pb -4.4659 1.8526 -1.0416 0
M  V30 3 Pb -3.7799 0.7959 -2.5891 0
M  V30 4 Pb -4.7407 0.5321 -1.5943 0
M  V30 5 Pb -3.4364 2.0080 -1.9545 0
M  V30 6 Pd 6.1911 -0.4846 -5.9001 0
M  V30 7 Pb 6.0682 -0.9321 -5.0147 0
M  V30 8 Pb 6.2136 -0.0342 -6.7870 0
M  V30 9 Pb 6.4687 0.3872 -5.4988 0
M  V30 10 Pb 5.7177 -1.2478 -6.3394 0
M  V30 11 Pd 1.4564 0.6576 6.5312 0
M  V30 12 Pb 1.6434 1.6116 6.3285 0
M  V30 13 Pb 2.3660 0.4096 6.1969 0
M  V30 14 Pb 1.3019 -0.3037 6.7601 0
M  V30 15 Pb 0.5176 0.9172 6.8368 0
M  V30 16 Pd -1.5257 -5.6824 4.2049 0
M  V30 17 Pb -0.9348 -5.4917 4.9842 0
M  V30 18 Pb -2.2696 -5.8530 4.8375 0
M  V30 19 Pb -0.7243 -5.5478 3.6229 0
M  V30 20 Pb -2.1825 -5.6897 3.4206 0
M  V30 21 Pd 4.2968 -1.1366 1.7891 0
M  V30 22 Pb 4.4431 -1.4354 0.8464 0
M  V30 23 Pb 4.2896 -0.8763 2.7589 0
M  V30 24 Pb 3.9299 -2.0471 1.9784 0
M  V30 25 Pb 4.5592 -0.2118 1.5196 0
M  V30 26 Pd -6.0967 -2.7726 2.0558 0
M  V30 27 Pb -6.3076 -3.1796 2.9337 0
M  V30 28 Pb -6.5458 -1.9548 2.4051 0
M  V30 29 Pb -6.0200 -2.3834 1.1317 0
M  V30 30 Pb -5.4982 -3.5718 1.8374 0
M  V30 31 Pd -3.6679 3.4363 5.3213 0
M  V30 32 Pb -4.1125 3.8544 4.5356 0
M  V30 33 Pb -4.4284 2.7899 5.2815 0
M  V30 34 Pb -3.1539 2.9109 6.0260 0
M  V30 35 Pb -2.9370 4.1083 5.3030 0
M  V30 36 Pd 3.0310 3.5034 -4.0649 0
M  V30 37 Pb 3.4283 3.3544 -3.1575 0
M  V30 38 Pb 2.5971 3.7042 -4.9525 0
M  V30 39 Pb 3.9625 3.3579 -4.4178 0
M  V30 40 Pb 2.1297 3.6768 -3.6684 0
M  V30 41 Pd 0.4102 1.0648 -8.1880 0
M  V30 42 Pb 1.1939 1.3134 -8.7491 0
M  V30 43 Pb -0.3352 0.7746 -7.5869 0
M  V30 44 Pb 0.3723 2.0211 -7.8981 0
M  V30 45 Pb 0.6455 0.1071 -8.3507 0
M  V30 46 Ag 5.9065 -1.3083 -4.3864 0
M  V30 47 Fe 5.2638 -1.4410 -2.1039 0
M  V30 48 Ag 4.6251 -1.7001 0.1688 0
M  V30 49 Ag -4.6999 2.3491 -0.5312 0
M  V30 50 Fe -4.6315 3.2603 1.6580 0
M  V30 51 Ag -4.4488 4.0300 3.8942 0
M  V30 52 Ag 4.6891 0.4725 1.2450 0
M  V30 53 Fe 4.2519 1.9069 -0.5972 0
M  V30 54 Ag 3.7532 3.2577 -2.4865 0
M  V30 55 Ag -0.0628 -5.4671 3.2783 0
M  V30 56 Fe 1.7706 -4.0940 2.6488 0
M  V30 57 Ag 3.6050 -2.7223 2.0191 0
M  V30 58 Ag -2.8845 -5.8882 5.2415 0
M  V30 59 Fe -4.9657 -4.8714 4.8661 0
M  V30 60 Ag -6.3962 -3.5299 3.5765 0
M  V30 61 Ag 5.2307 -1.6925 -6.6957 0
M  V30 62 Fe 3.0695 -1.4180 -7.6391 0
M  V30 63 Ag 0.9838 -0.5607 -8.3811 0
M  V30 64 Ag 6.0773 0.3079 -7.4322 0
M  V30 65 Fe 4.1142 1.0148 -8.5427 0
M  V30 66 Ag 1.8506 1.4407 -9.0738 0
M  V30 67 Ag 1.6516 2.3352 6.1766 0
M  V30 68 Fe -0.0782 3.8527 5.6819 0
M  V30 69 Ag -2.3096 4.4994 5.3042 0
M  V30 70 Ag 1.2262 -1.0330 6.9192 0
M  V30 71 Fe 0.3968 -3.1741 6.3187 0
M  V30 72 Ag -0.5222 -5.2203 5.5441 0
M  V30 73 Ag -2.9205 2.5415 -2.0581 0
M  V30 74 Fe -0.7335 3.1764 -2.7305 0
M  V30 75 Ag 1.4486 3.8340 -3.3969 0
M  V30 76 Ag -3.5609 0.4669 -3.2258 0
M  V30 77 Fe -2.2011 0.4967 -5.1731 0
M  V30 78 Ag -0.8617 0.4883 -7.1346 0
M  V30 79 Ag -6.7822 -1.3648 2.7979 0
M  V30 80 Fe -5.9994 0.5330 3.9891 0
M  V30 81 Ag -5.0366 2.3779 5.1308 0
M  V30 82 Ba -0.1798 1.1041 7.1050 0
M  V30 83 Ga -1.4461 1.8252 6.7558 0
M  V30 84 Ba -2.7656 2.5051 6.5504 0
M  V30 85 Ba -2.6840 -5.6738 2.8318 0
M  V30 86 Ga -3.8561 -4.8852 2.3157 0
M  V30 87 Ba -5.0324 -4.1742 1.7049 0
M  V30 88 Ba 6.5851 1.0986 -5.2888 0
M  V30 89 Ga 5.6419 2.1800 -4.9202 0
M  V30 90 Ba 4.7013 3.2660 -4.5582 0
M  V30 91 Ba -5.1913 -0.0659 -1.5091 0
M  V30 92 Ga -5.5818 -1.0615 -0.4848 0
M  V30 93 Ba -6.0677 -2.1256 0.4229 0
M  V30 94 Ba 2.1740 3.9160 -5.5461 0
M  V30 95 Ga 1.3301 3.3142 -6.6071 0
M  V30 96 Ba 0.4869 2.7312 -7.6792 0
M  V30 97 Ba 3.0499 0.2211 5.9526 0
M  V30 98 Ga 3.6642 -0.2359 4.6882 0
M  V30 99 Ba 4.3878 -0.6959 3.4846 0
M  V30 END ATOM
M  V30 BEGIN BOND
M  V30 1 1 1 2
M  V30 2 1 1 3
M  V30 3 1 1 4
M  V30 4 1 1 5
M  V30 5 1 6 7
M  V30 6 1 6 8
M  V30 7 1 6 9
M  V30 8 1 6 10
M  V30 9 1 11 12
M  V30 10 1 11 13
M  V30 11 1 11 14
M  V30 12 1 11 15
M  V30 13 1 16 17
M  V30 14 1 16 18
M  V30 15 1 16 19
M  V30 16 1 16 20
M  V30 17 1 21 22
M  V30 18 1 21 23
M  V30 19 1 21 24
M  V30 20 1 21 25
M  V30 21 1 26 27
M  V30 22 1 26 28
M  V30 23 1 26 29
M  V30 24 1 26 30
M  V30 25 1 31 32
M  V30 26 1 31 33
M  V30 27 1 31 34
M  V30 28 1 31 35
M  V30 29 1 36 37
M  V30 30 1 36 38
M  V30 31 1 36 39
M  V30 32 1 36 40
M  V30 33 1 41 42
M  V30 34 1 41 43
M  V30 35 1 41 44
M  V30 36 1 41 45
M  V30 37 1 46 47
M  V30 38 1 47 48
M  V30 39 1 49 50
M  V30 40 1 50 51
M  V30 41 1 52 53
M  V30 42 1 53 54
M  V30 43 1 55 56
M  V30 44 1 56 57
M  V30 45 1 58 59
M  V30 46 1 59 60
M  V30 47 1 61 62
M  V30 48 1 62 63
M  V30 49 1 64 65
M  V30 50 1 65 66
M  V30 51 1 67 68
M  V30 52 1 68 69
M  V30 53 1 70 71
M  V30 54 1 71 72
M  V30 55 1 73 74
M  V30 56 1 74 75
M  V30 57 1 76 77
M  V30 58 1 77 78
M  V30 59 1 79 80
M  V30 60 1 80 81
M  V30 61 1 82 83
M  V30 62 1 83 84
M  V30 63 1 85 86
M  V30 64 1 86 87
M  V30 65 1 88 89
M  V30 66 1 89 90
M  V30 67 1 91 92
M  V30 68 1 92 93
M  V30 69 1 94 95
M  V30 70 1 95 96
M  V30 71 1 97 98
M  V30 72 1 98 99
M  V30 73 1 2 49
M  V30 74 1 3 76
M  V30 75 1 4 91
M  V30 76 1 5 73
M  V30 77 1 7 46
M  V30 78 1 8 64
M  V30 79 1 9 88
M  V30 80 1 10 61
M  V30 81 1 12 67
M  V30 82 1 13 97
M  V30 83 1 14 70
M  V30 84 1 15 82
M  V30 85 1 17 72
M  V30 86 1 18 58
M  V30 87 1 19 55
M  V30 88 1 20 85
M  V30 89 1 22 48
M  V30 90 1 23 99
M  V30 91 1 24 57
M  V30 92 1 25 52
M  V30 93 1 27 60
M  V30 94 1 28 79
M  V30 95 1 29 93
M  V30 96 1 30 87
M  V30 97 1 32 51
M  V30 98 1 33 81
M  V30 99 1 34 84
M  V30 100 1 35 69
M  V30 101 1 37 54
M  V30 102 1 38 94
M  V30 103 1 39 90
M  V30 104 1 40 75
M  V30 105 1 42 66
M  V30 106 1 43 78
M  V30 107 1 44 96
M  V30 108 1 45 63
M  V30 END BOND
M  V30 END CTAB
M  END

$$$$
