
     RDKit          3D

  0  0  0  0  0  0  0  0  0  0999 V3000
M  V30 BEGIN CTAB
M  V30 COUNTS 99 108 0 0 0
M  V30 BEGIN ATOM
M  V30 1 Pd 3.6528 1.2413 0.8074 0
M  V30 2 Pb 3.9576 0.6735 0.0364 0
M  V30 3 Pb 4.4597 0.9592 1.3253 0
M  V30 4 Pb 2.8373 1.5091 0.2979 0
M  V30 5 Pb 3.3312 1.7573 1.6020 0
M  V30 6 Pd -0.9818 4.9757 0.1662 0
M  V30 7 Pb -1.7140 5.6488 0.1134 0
M  V30 8 Pb -1.5712 4.4088 0.7374 0
M  V30 9 Pb -0.3671 4.2019 0.0007 0
M  V30 10 Pb -0.4990 5.5134 -0.5172 0
M  V30 11 Pd -4.6714 3.2315 -2.1188 0
M  V30 12 Pb -4.8320 2.2502 -2.2246 0
M  V30 13 Pb -4.5727 3.0834 -1.1332 0
M  V30 14 Pb -4.6965 3.3601 -3.1150 0
M  V30 15 Pb -4.5516 4.2129 -1.9452 0
M  V30 16 Pd 1.8627 -1.0700 -4.0681 0
M  V30 17 Pb 2.1402 -0.1787 -4.4203 0
M  V30 18 Pb 1.6039 -1.9996 -3.7996 0
M  V30 19 Pb 1.0686 -1.0478 -4.6830 0
M  V30 20 Pb 2.6571 -1.0699 -3.4544 0
M  V30 21 Pd -4.6052 -2.5451 2.3650 0
M  V30 22 Pb -5.0884 -1.7116 2.6100 0
M  V30 23 Pb -4.1159 -3.3749 2.0980 0
M  V30 24 Pb -4.8729 -2.4025 1.4123 0
M  V30 25 Pb -4.2481 -2.5992 3.3172 0
M  V30 26 Pd -0.9685 2.8568 -6.1229 0
M  V30 27 Pb -1.1103 1.8774 -6.2706 0
M  V30 28 Pb 0.0161 2.6972 -6.0910 0
M  V30 29 Pb -1.9573 3.0330 -6.0834 0
M  V30 30 Pb -0.7677 3.8032 -5.8899 0
M  V30 31 Pd 4.9720 -3.3426 3.2234 0
M  V30 32 Pb 5.2630 -3.6098 2.3026 0
M  V30 33 Pb 4.5777 -3.0713 4.1002 0
M  V30 34 Pb 4.5171 -4.2237 3.3166 0
M  V30 35 Pb 5.4290 -2.4582 3.1296 0
M  V30 36 Pd -1.1213 0.1881 6.1073 0
M  V30 37 Pb -0.3246 -0.3917 6.2812 0
M  V30 38 Pb -1.7458 -0.6132 6.0574 0
M  V30 39 Pb -0.4940 0.9547 5.9840 0
M  V30 40 Pb -1.9010 0.7873 5.9619 0
M  V30 41 Pd 1.9497 -5.5086 -0.2114 0
M  V30 42 Pb 1.6806 -5.1782 -1.1165 0
M  V30 43 Pb 2.2029 -5.8645 0.6845 0
M  V30 44 Pb 2.9087 -5.2569 -0.3607 0
M  V30 45 Pb 0.9947 -5.7194 -0.0074 0
M  V30 46 Ag -4.9705 1.5131 -2.2225 0
M  V30 47 Fe -5.0342 -0.4288 -0.8569 0
M  V30 48 Ag -5.0210 -2.2224 0.6997 0
M  V30 49 Ag 3.0717 2.0953 2.2197 0
M  V30 50 Fe 1.5775 1.9179 4.0564 0
M  V30 51 Ag 0.0017 1.4751 5.7760 0
M  V30 52 Ag -0.2577 5.8572 -1.1306 0
M  V30 53 Fe -0.2811 5.4138 -3.4543 0
M  V30 54 Ag -0.5482 4.4523 -5.5993 0
M  V30 55 Ag 4.2071 -2.8872 4.7246 0
M  V30 56 Fe 2.2708 -1.8421 5.6183 0
M  V30 57 Ag 0.3050 -0.7767 6.4189 0
M  V30 58 Ag -3.7493 -3.9854 1.8633 0
M  V30 59 Fe -1.7519 -4.9553 1.0225 0
M  V30 60 Ag 0.2826 -5.8488 0.1861 0
M  V30 61 Ag -5.3206 -1.0580 2.8675 0
M  V30 62 Fe -4.2788 0.4392 4.3549 0
M  V30 63 Ag -2.5338 1.1243 5.7780 0
M  V30 64 Ba 5.4141 -3.8224 1.5969 0
M  V30 65 Ga 4.5572 -4.4411 0.5623 0
M  V30 66 Ba 3.6329 -5.0585 -0.4133 0
M  V30 67 Ba 2.3378 0.4689 -4.7378 0
M  V30 68 Ga 1.5670 1.5455 -5.3810 0
M  V30 69 Ba 0.7534 2.5967 -6.0134 0
M  V30 70 Ba 5.0571 0.7355 1.7184 0
M  V30 71 Ga 5.4236 -0.5250 2.3897 0
M  V30 72 Ba 5.7703 -1.7947 3.0544 0
M  V30 73 Ba 1.3859 -2.7101 -3.6867 0
M  V30 74 Ga 1.4514 -3.8001 -2.6932 0
M  V30 75 Ba 1.4393 -4.9731 -1.7968 0
M  V30 76 Ba 0.4726 -1.0281 -5.1454 0
M  V30 77 Ga -0.3552 0.0380 -5.7505 0
M  V30 78 Ba -1.1608 1.1310 -6.3373 0
M  V30 79 Ba -2.0947 3.9901 1.0682 0
M  V30 80 Ga -3.2973 3.4444 0.4135 0
M  V30 81 Ba -4.4355 2.9820 -0.4014 0
M  V30 82 Ba -2.3071 6.0634 -0.0723 0
M  V30 83 Ga -3.4315 5.5784 -0.8970 0
M  V30 84 Ba -4.4682 4.9293 -1.7247 0
M  V30 85 Ba 4.2054 0.2176 -0.5118 0
M  V30 86 Ga 3.7023 -0.3992 -1.7603 0
M  V30 87 Ba 3.2712 -1.0519 -3.0175 0
M  V30 88 Ba 4.1610 -4.8777 3.3564 0
M  V30 89 Ga 3.2753 -5.5405 2.3902 0
M  V30 90 Ba 2.4048 -6.1173 1.3573 0
M  V30 91 Ba -3.9865 -2.6300 4.0391 0
M  V30 92 Ga -3.0865 -1.8857 4.9768 0
M  V30 93 Ba -2.2121 -1.2196 5.9941 0
M  V30 94 Ba 2.2254 1.6799 -0.0966 0
M  V30 95 Ga 1.1452 2.6858 -0.0987 0
M  V30 96 Ba -0.0059 3.5947 -0.2592 0
M  V30 97 Ba -4.6990 3.4330 -3.8665 0
M  V30 98 Ga -3.6910 3.3063 -4.9456 0
M  V30 99 Ba -2.6960 3.1834 -6.0371 0
M  V30 END ATOM
M  V30 BEGIN BOND
M  V30 1 1 1 2
M  V30 2 1 1 3
M  V30 3 1 1 4
M  V30 4 1 1 5
M  V30 5 1 6 7
M  V30 6 1 6 8
M  V30 7 1 6 9
M  V30 8 1 6 10
M  V30 9 1 11 12
M  V30 10 1 11 13
M  V30 11 1 11 14
M  V30 12 1 11 15
M  V30 13 1 16 17
M  V30 14 1 16 18
M  V30 15 1 16 19
M  V30 16 1 16 20
M  V30 17 1 21 22
M  V30 18 1 21 23
M  V30 19 1 21 24
M  V30 20 1 21 25
M  V30 21 1 26 27
M  V30 22 1 26 28
M  V30 23 1 26 29
M  V30 24 1 26 30
M  V30 25 1 31 32
M  V30 26 1 31 33
M  V30 27 1 31 34
M  V30 28 1 31 35
M  V30 29 1 36 37
M  V30 30 1 36 38
M  V30 31 1 36 39
M  V30 32 1 36 40
M  V30 33 1 41 42
M  V30 34 1 41 43
M  V30 35 1 41 44
M  V30 36 1 41 45
M  V30 37 1 46 47
M  V30 38 1 47 48
M  V30 39 1 49 50
M  V30 40 1 50 51
M  V30 41 1 52 53
M  V30 42 1 53 54
M  V30 43 1 55 56
M  V30 44 1 56 57
M  V30 45 1 58 59
M  V30 46 1 59 60
M  V30 47 1 61 62
M  V30 48 1 62 63
M  V30 49 1 64 65
M  V30 50 1 65 66
M  V30 51 1 67 68
M  V30 52 1 68 69
M  V30 53 1 70 71
M  V30 54 1 71 72
M  V30 55 1 73 74
M  V30 56 1 74 75
M  V30 57 1 76 77
M  V30 58 1 77 78
M  V30 59 1 79 80
M  V30 60 1 80 81
M  V30 61 1 82 83
M  V30 62 1 83 84
M  V30 63 1 85 86
M  V30 64 1 86 87
M  V30 65 1 88 89
M  V30 66 1 89 90
M  V30 67 1 91 92
M  V30 68 1 92 93
M  V30 69 1 94 95
M  V30 70 1 95 96
M  V30 71 1 97 98
M  V30 72 1 98 99
M  V30 73 1 2 85
M  V30 74 1 3 70
M  V30 75 1 4 94
M  V30 76 1 5 49
M  V30 77 1 7 82
M  V30 78 1 8 79
M  V30 79 1 9 96
M  V30 80 1 10 52
M  V30 81 1 12 46
M  V30 82 1 13 81
M  V30 83 1 14 97
M  V30 84 1 15 84
M  V30 85 1 17 67
M  V30 86 1 18 73
M  V30 87 1 19 76
M  V30 88 1 20 87
M  V30 89 1 22 61
M  V30 90 1 23 58
M  V30 91 1 24 48
M  V30 92 1 25 91
M  V30 93 1 27 78
M  V30 94 1 28 69
M  V30 95 1 29 99
M  V30 96 1 30 54
M  V30 97 1 32 64
M  V30 98 1 33 55
M  V30 99 1 34 88
M  V30 100 1 35 72
M  V30 101 1 37 57
M  V30 102 1 38 93
M  V30 103 1 39 51
M  V30 104 1 40 63
M  V30 105 1 42 75
M  V30 106 1 43 90
M  V30 107 1 44 66
M  V30 108 1 45 60
M  V30 END BOND
M  V30 END CTAB
M  END

$$$$
