
     RDKit          3D

  0  0  0  0  0  0  0  0  0  0999 V3000
M  V30 BEGIN CTAB
M  V30 COUNTS 99 108 0 0 0
M  V30 BEGIN ATOM
M  V30 1 Pd 1.1004 5.2143 1.5767 0
M  V30 2 Pb 0.2882 5.4506 2.1125 0
M  V30 3 Pb 1.9302 5.0180 1.0530 0
M  V30 4 Pb 1.5492 4.8800 2.4042 0
M  V30 5 Pb 0.6426 5.5018 0.7364 0
M  V30 6 Pd 5.0015 -1.6789 -5.8359 0
M  V30 7 Pb 4.5035 -2.1937 -5.1382 0
M  V30 8 Pb 5.4437 -1.0795 -6.4981 0
M  V30 9 Pb 4.2213 -1.7210 -6.4515 0
M  V30 10 Pb 5.7243 -1.4578 -5.1833 0
M  V30 11 Pd -5.9536 -2.8052 0.9895 0
M  V30 12 Pb -5.8011 -1.8497 0.7281 0
M  V30 13 Pb -5.9093 -3.1229 0.0429 0
M  V30 14 Pb -6.0280 -3.7457 1.3133 0
M  V30 15 Pb -5.9244 -2.5013 1.9383 0
M  V30 16 Pd -1.1044 -6.3501 4.4384 0
M  V30 17 Pb -2.0366 -6.6652 4.2771 0
M  V30 18 Pb -1.3614 -5.9296 5.3084 0
M  V30 19 Pb -0.8900 -6.6612 3.5124 0
M  V30 20 Pb -0.2070 -5.9258 4.5605 0
M  V30 21 Pd -1.8335 -3.6837 -2.5124 0
M  V30 22 Pb -0.8404 -3.5796 -2.5925 0
M  V30 23 Pb -2.8251 -3.8216 -2.4618 0
M  V30 24 Pb -1.6468 -4.5264 -2.0042 0
M  V30 25 Pb -2.0169 -2.8123 -2.9720 0
M  V30 26 Pd 0.5298 0.0960 7.1250 0
M  V30 27 Pb -0.0787 -0.6255 7.4567 0
M  V30 28 Pb -0.0706 0.8246 7.4588 0
M  V30 29 Pb 1.1330 0.8022 6.7575 0
M  V30 30 Pb 1.0952 -0.6380 6.7457 0
M  V30 31 Pd -3.1308 2.9028 4.5812 0
M  V30 32 Pb -2.7404 3.7846 4.3117 0
M  V30 33 Pb -2.7656 2.9962 5.5092 0
M  V30 34 Pb -3.5634 2.0430 4.8396 0
M  V30 35 Pb -3.4973 2.7522 3.6594 0
M  V30 36 Pd 0.0245 3.2051 -5.6446 0
M  V30 37 Pb -0.7209 2.6055 -5.3540 0
M  V30 38 Pb 0.8121 3.7710 -5.9009 0
M  V30 39 Pb 0.2721 2.4944 -6.2999 0
M  V30 40 Pb -0.2222 3.8880 -4.9579 0
M  V30 41 Pd 5.4017 2.9756 -4.7313 0
M  V30 42 Pb 5.6382 2.6149 -5.6327 0
M  V30 43 Pb 5.2079 3.3340 -3.8170 0
M  V30 44 Pb 4.7806 3.6394 -5.1556 0
M  V30 45 Pb 5.9884 2.2683 -4.3277 0
M  V30 46 Ag 4.1084 -2.5310 -4.5970 0
M  V30 47 Fe 1.9956 -3.0423 -3.6372 0
M  V30 48 Ag -0.0896 -3.5803 -2.6326 0
M  V30 49 Ag -2.2079 -2.1541 -3.2822 0
M  V30 50 Fe -1.7198 -0.0230 -4.2135 0
M  V30 51 Ag -1.2445 2.1095 -5.1484 0
M  V30 52 Ag -0.8135 -6.8410 2.7880 0
M  V30 53 Fe -1.1050 -6.0558 0.5641 0
M  V30 54 Ag -1.4497 -5.1261 -1.5957 0
M  V30 55 Ag -1.5177 -5.5196 5.9167 0
M  V30 56 Fe -1.0932 -3.4020 6.9054 0
M  V30 57 Ag -0.4893 -1.2258 7.6412 0
M  V30 58 Ag -5.8391 -2.2417 2.6329 0
M  V30 59 Fe -4.9212 -0.4740 3.9178 0
M  V30 60 Ag -3.9245 1.4026 4.9682 0
M  V30 61 Ag -5.6422 -1.1205 0.6295 0
M  V30 62 Fe -4.7324 0.7917 1.7135 0
M  V30 63 Ag -3.7898 2.5636 2.9910 0
M  V30 64 Ag 0.4060 -5.5130 4.6902 0
M  V30 65 Fe 1.0772 -3.4015 5.5482 0
M  V30 66 Ag 1.4443 -1.2362 6.4548 0
M  V30 67 Ag -5.9953 -4.4244 1.6236 0
M  V30 68 Fe -4.5082 -5.7883 2.8676 0
M  V30 69 Ag -2.7391 -6.8101 4.0699 0
M  V30 70 Ag 3.6247 -1.5815 -6.8740 0
M  V30 71 Fe 1.9394 0.0813 -6.9710 0
M  V30 72 Ag 0.4483 1.9073 -6.7283 0
M  V30 73 Ag 1.8730 4.5937 3.0158 0
M  V30 74 Fe 1.7666 2.9928 4.7652 0
M  V30 75 Ag 1.5496 1.3524 6.4670 0
M  V30 76 Ag 0.3059 5.6783 0.0910 0
M  V30 77 Fe -0.0740 5.0847 -2.1760 0
M  V30 78 Ag -0.3808 4.3911 -4.4256 0
M  V30 79 Ag 2.5685 4.8969 0.6767 0
M  V30 80 Fe 3.7855 4.2298 -1.2517 0
M  V30 81 Ag 5.1097 3.5891 -3.1174 0
M  V30 82 Ba -0.3047 5.6621 2.5225 0
M  V30 83 Ga -1.3801 5.0259 3.3094 0
M  V30 84 Ba -2.4826 4.4618 4.1134 0
M  V30 85 Ba 6.2234 -1.1708 -4.7039 0
M  V30 86 Ga 6.3733 0.2512 -4.3324 0
M  V30 87 Ba 6.4063 1.7026 -4.0571 0
M  V30 88 Ba 5.7248 -0.5577 -6.9519 0
M  V30 89 Ga 5.8179 0.8874 -6.6928 0
M  V30 90 Ba 5.8420 2.2996 -6.2808 0
M  V30 91 Ba 1.4064 4.2053 -6.0608 0
M  V30 92 Ga 2.8577 4.1550 -5.7772 0
M  V30 93 Ba 4.3107 4.1168 -5.5003 0
M  V30 94 Ba -0.5103 1.3964 7.6694 0
M  V30 95 Ga -1.5083 2.2208 6.9573 0
M  V30 96 Ba -2.4997 3.0233 6.2118 0
M  V30 97 Ba -5.8460 -3.3881 -0.6555 0
M  V30 98 Ga -4.7039 -3.6444 -1.5557 0
M  V30 99 Ba -3.5727 -3.9076 -2.4676 0
M  V30 END ATOM
M  V30 BEGIN BOND
M  V30 1 1 1 2
M  V30 2 1 1 3
M  V30 3 1 1 4
M  V30 4 1 1 5
M  V30 5 1 6 7
M  V30 6 1 6 8
M  V30 7 1 6 9
M  V30 8 1 6 10
M  V30 9 1 11 12
M  V30 10 1 11 13
M  V30 11 1 11 14
M  V30 12 1 11 15
M  V30 13 1 16 17
M  V30 14 1 16 18
M  V30 15 1 16 19
M  V30 16 1 16 20
M  V30 17 1 21 22
M  V30 18 1 21 23
M  V30 19 1 21 24
M  V30 20 1 21 25
M  V30 21 1 26 27
M  V30 22 1 26 28
M  V30 23 1 26 29
M  V30 24 1 26 30
M  V30 25 1 31 32
M  V30 26 1 31 33
M  V30 27 1 31 34
M  V30 28 1 31 35
M  V30 29 1 36 37
M  V30 30 1 36 38
M  V30 31 1 36 39
M  V30 32 1 36 40
M  V30 33 1 41 42
M  V30 34 1 41 43
M  V30 35 1 41 44
M  V30 36 1 41 45
M  V30 37 1 46 47
M  V30 38 1 47 48
M  V30 39 1 49 50
M  V30 40 1 50 51
M  V30 41 1 52 53
M  V30 42 1 53 54
M  V30 43 1 55 56
M  V30 44 1 56 57
M  V30 45 1 58 59
M  V30 46 1 59 60
M  V30 47 1 61 62
M  V30 48 1 62 63
M  V30 49 1 64 65
M  V30 50 1 65 66
M  V30 51 1 67 68
M  V30 52 1 68 69
M  V30 53 1 70 71
M  V30 54 1 71 72
M  V30 55 1 73 74
M  V30 56 1 74 75
M  V30 57 1 76 77
M  V30 58 1 77 78
M  V30 59 1 79 80
M  V30 60 1 80 81
M  V30 61 1 82 83
M  V30 62 1 83 84
M  V30 63 1 85 86
M  V30 64 1 86 87
M  V30 65 1 88 89
M  V30 66 1 89 90
M  V30 67 1 91 92
M  V30 68 1 92 93
M  V30 69 1 94 95
M  V30 70 1 95 96
M  V30 71 1 97 98
M  V30 72 1 98 99
M  V30 73 1 2 82
M  V30 74 1 3 79
M  V30 75 1 4 73
M  V30 76 1 5 76
M  V30 77 1 7 46
M  V30 78 1 8 88
M  V30 79 1 9 70
M  V30 80 1 10 85
M  V30 81 1 12 61
M  V30 82 1 13 97
M  V30 83 1 14 67
M  V30 84 1 15 58
M  V30 85 1 17 69
M  V30 86 1 18 55
M  V30 87 1 19 52
M  V30 88 1 20 64
M  V30 89 1 22 48
M  V30 90 1 23 99
M  V30 91 1 24 54
M  V30 92 1 25 49
M  V30 93 1 27 57
M  V30 94 1 28 94
M  V30 95 1 29 75
M  V30 96 1 30 66
M  V30 97 1 32 84
M  V30 98 1 33 96
M  V30 99 1 34 60
M  V30 100 1 35 63
M  V30 101 1 37 51
M  V30 102 1 38 91
M  V30 103 1 39 72
M  V30 104 1 40 78
M  V30 105 1 42 90
M  V30 106 1 43 81
M  V30 107 1 44 93
M  V30 108 1 45 87
M  V30 END BOND
M  V30 END CTAB
M  END

$$$$
