
     RDKit          3D

  0  0  0  0  0  0  0  0  0  0999 V3000
M  V30 BEGIN CTAB
M  V30 COUNTS 99 108 0 0 0
M  V30 BEGIN ATOM
M  V30 1 Pd 1.9391 -4.2953 2.6154 0
M  V30 2 Pb 2.7760 -4.1272 2.0838 0
M  V30 3 Pb 1.6819 -5.0081 1.9584 0
M  V30 4 Pb 2.2204 -3.6330 3.3060 0
M  V30 5 Pb 1.1245 -4.4584 3.1782 0
M  V30 6 Pd -4.9289 -1.8092 -3.7926 0
M  V30 7 Pb -4.1990 -1.1716 -3.5461 0
M  V30 8 Pb -5.5744 -2.5541 -3.9456 0
M  V30 9 Pb -5.4752 -1.5002 -3.0185 0
M  V30 10 Pb -4.3185 -2.2708 -4.4370 0
M  V30 11 Pd 2.5734 5.0218 -3.8522 0
M  V30 12 Pb 2.7120 4.0360 -3.9650 0
M  V30 13 Pb 1.7188 4.9876 -4.3624 0
M  V30 14 Pb 2.3625 5.9776 -3.6456 0
M  V30 15 Pb 3.3743 5.0156 -3.2559 0
M  V30 16 Pd 0.2303 6.8505 0.3998 0
M  V30 17 Pb 0.4210 7.3043 -0.4730 0
M  V30 18 Pb 0.0997 6.3972 1.2797 0
M  V30 19 Pb -0.7634 6.8568 0.2580 0
M  V30 20 Pb 1.2142 6.8021 0.5778 0
M  V30 21 Pd -3.2859 3.0964 -1.0324 0
M  V30 22 Pb -3.0398 2.2189 -1.4447 0
M  V30 23 Pb -3.2249 3.4824 -1.9486 0
M  V30 24 Pb -3.4316 4.0177 -0.6665 0
M  V30 25 Pb -3.2548 2.6980 -0.1122 0
M  V30 26 Pd 4.4767 2.5860 4.4251 0
M  V30 27 Pb 3.5810 3.0013 4.5740 0
M  V30 28 Pb 5.3360 2.1225 4.2124 0
M  V30 29 Pb 4.1953 1.7627 4.9071 0
M  V30 30 Pb 4.7008 3.3809 3.8619 0
M  V30 31 Pd 5.4355 -0.2686 0.2744 0
M  V30 32 Pb 5.2815 -1.2510 0.4243 0
M  V30 33 Pb 5.9756 -0.1911 1.1130 0
M  V30 34 Pb 5.5962 0.7035 0.1000 0
M  V30 35 Pb 4.9233 -0.2798 -0.5858 0
M  V30 36 Pd -3.6519 -3.2272 3.1162 0
M  V30 37 Pb -3.3883 -2.2702 3.2428 0
M  V30 38 Pb -3.9127 -4.1763 2.9350 0
M  V30 39 Pb -4.4117 -2.8723 2.5718 0
M  V30 40 Pb -2.8709 -3.5824 3.6336 0
M  V30 41 Pd -2.8805 -7.9169 -2.2621 0
M  V30 42 Pb -3.8029 -7.7718 -2.6151 0
M  V30 43 Pb -1.9577 -7.9461 -1.8777 0
M  V30 44 Pb -3.2521 -8.1131 -1.3573 0
M  V30 45 Pb -2.5469 -7.5237 -3.1191 0
M  V30 46 Ag -3.1788 2.3874 0.5700 0
M  V30 47 Fe -3.2008 0.4594 1.9616 0
M  V30 48 Ag -3.2544 -1.5314 3.2609 0
M  V30 49 Ag 0.0909 6.0485 1.9416 0
M  V30 50 Fe 1.3945 4.6809 3.3769 0
M  V30 51 Ag 2.9056 3.3224 4.6021 0
M  V30 52 Ag 3.9365 4.9091 -2.7731 0
M  V30 53 Fe 4.9080 3.2489 -1.3812 0
M  V30 54 Ag 5.6936 1.4260 -0.0779 0
M  V30 55 Ag -3.8655 -2.7418 -4.8059 0
M  V30 56 Fe -2.9891 -4.9265 -4.4859 0
M  V30 57 Ag -2.3951 -7.0934 -3.7147 0
M  V30 58 Ag -5.9371 -3.2046 -3.9984 0
M  V30 59 Fe -5.4482 -5.4747 -3.5228 0
M  V30 60 Ag -4.4566 -7.5320 -2.8874 0
M  V30 61 Ag 2.8139 3.2909 -3.9589 0
M  V30 62 Fe 3.6572 1.4677 -2.6875 0
M  V30 63 Ag 4.5692 -0.1844 -1.2417 0
M  V30 64 Ag 1.9370 6.7169 0.7629 0
M  V30 65 Fe 3.4616 5.4223 2.0444 0
M  V30 66 Ag 4.7608 3.9747 3.4080 0
M  V30 67 Ag -5.8185 -1.3882 -2.3648 0
M  V30 68 Fe -5.5135 -1.8981 -0.0676 0
M  V30 69 Ag -4.9321 -2.5499 2.1388 0
M  V30 70 Ag 2.4142 -3.1608 3.8522 0
M  V30 71 Fe 3.1915 -1.0442 4.5836 0
M  V30 72 Ag 3.9766 1.1089 5.1885 0
M  V30 73 Ag -4.0598 -4.8941 2.7718 0
M  V30 74 Fe -3.8634 -6.6127 1.1455 0
M  V30 75 Ag -3.5312 -8.1136 -0.6636 0
M  V30 76 Ag 1.5345 -5.5629 1.4710 0
M  V30 77 Fe 0.1304 -6.7410 -0.0427 0
M  V30 78 Ag -1.2813 -7.9122 -1.5546 0
M  V30 79 Ag 1.0235 4.9594 -4.6283 0
M  V30 80 Fe -1.1434 4.4058 -3.8510 0
M  V30 81 Ag -3.0582 3.7427 -2.6266 0
M  V30 82 Ba -3.6012 -0.7756 -3.3251 0
M  V30 83 Ga -3.2602 0.4368 -2.5558 0
M  V30 84 Ba -2.7807 1.6160 -1.8092 0
M  V30 85 Ba 3.4142 -4.0442 1.6883 0
M  V30 86 Ga 4.2687 -2.9754 1.1199 0
M  V30 87 Ba 5.1990 -1.9970 0.5092 0
M  V30 88 Ba -1.5152 6.8339 0.2054 0
M  V30 89 Ga -2.5126 5.7896 -0.1176 0
M  V30 90 Ba -3.4964 4.7337 -0.4444 0
M  V30 91 Ba 2.1233 6.6674 -3.4702 0
M  V30 92 Ga 1.3787 7.1824 -2.3025 0
M  V30 93 Ba 0.6350 7.6412 -1.1109 0
M  V30 94 Ba 0.5555 -4.5532 3.6630 0
M  V30 95 Ga -0.8765 -4.2096 3.7973 0
M  V30 96 Ba -2.3078 -3.9065 4.0125 0
M  V30 97 Ba 5.9350 1.7065 4.0393 0
M  V30 98 Ga 6.1993 0.8112 2.8970 0
M  V30 99 Ba 6.3916 -0.0639 1.7248 0
M  V30 END ATOM
M  V30 BEGIN BOND
M  V30 1 1 1 2
M  V30 2 1 1 3
M  V30 3 1 1 4
M  V30 4 1 1 5
M  V30 5 1 6 7
M  V30 6 1 6 8
M  V30 7 1 6 9
M  V30 8 1 6 10
M  V30 9 1 11 12
M  V30 10 1 11 13
M  V30 11 1 11 14
M  V30 12 1 11 15
M  V30 13 1 16 17
M  V30 14 1 16 18
M  V30 15 1 16 19
M  V30 16 1 16 20
M  V30 17 1 21 22
M  V30 18 1 21 23
M  V30 19 1 21 24
M  V30 20 1 21 25
M  V30 21 1 26 27
M  V30 22 1 26 28
M  V30 23 1 26 29
M  V30 24 1 26 30
M  V30 25 1 31 32
M  V30 26 1 31 33
M  V30 27 1 31 34
M  V30 28 1 31 35
M  V30 29 1 36 37
M  V30 30 1 36 38
M  V30 31 1 36 39
M  V30 32 1 36 40
M  V30 33 1 41 42
M  V30 34 1 41 43
M  V30 35 1 41 44
M  V30 36 1 41 45
M  V30 37 1 46 47
M  V30 38 1 47 48
M  V30 39 1 49 50
M  V30 40 1 50 51
M  V30 41 1 52 53
M  V30 42 1 53 54
M  V30 43 1 55 56
M  V30 44 1 56 57
M  V30 45 1 58 59
M  V30 46 1 59 60
M  V30 47 1 61 62
M  V30 48 1 62 63
M  V30 49 1 64 65
M  V30 50 1 65 66
M  V30 51 1 67 68
M  V30 52 1 68 69
M  V30 53 1 70 71
M  V30 54 1 71 72
M  V30 55 1 73 74
M  V30 56 1 74 75
M  V30 57 1 76 77
M  V30 58 1 77 78
M  V30 59 1 79 80
M  V30 60 1 80 81
M  V30 61 1 82 83
M  V30 62 1 83 84
M  V30 63 1 85 86
M  V30 64 1 86 87
M  V30 65 1 88 89
M  V30 66 1 89 90
M  V30 67 1 91 92
M  V30 68 1 92 93
M  V30 69 1 94 95
M  V30 70 1 95 96
M  V30 71 1 97 98
M  V30 72 1 98 99
M  V30 73 1 2 85
M  V30 74 1 3 76
M  V30 75 1 4 70
M  V30 76 1 5 94
M  V30 77 1 7 82
M  V30 78 1 8 58
M  V30 79 1 9 67
M  V30 80 1 10 55
M  V30 81 1 12 61
M  V30 82 1 13 79
M  V30 83 1 14 91
M  V30 84 1 15 52
M  V30 85 1 17 93
M  V30 86 1 18 49
M  V30 87 1 19 88
M  V30 88 1 20 64
M  V30 89 1 22 84
M  V30 90 1 23 81
M  V30 91 1 24 90
M  V30 92 1 25 46
M  V30 93 1 27 51
M  V30 94 1 28 97
M  V30 95 1 29 72
M  V30 96 1 30 66
M  V30 97 1 32 87
M  V30 98 1 33 99
M  V30 99 1 34 54
M  V30 100 1 35 63
M  V30 101 1 37 48
M  V30 102 1 38 73
M  V30 103 1 39 69
M  V30 104 1 40 96
M  V30 105 1 42 60
M  V30 106 1 43 78
M  V30 107 1 44 75
M  V30 108 1 45 57
M  V30 END BOND
M  V30 END CTAB
M  END

$$$$
