
     RDKit          3D

  0  0  0  0  0  0  0  0  0  0999 V3000
M  V30 BEGIN CTAB
M  V30 COUNTS 99 108 0 0 0
M  V30 BEGIN ATOM
M  V30 1 Pd -3.1352 2.7184 -2.1578 0
M  V30 2 Pb -2.2181 3.0916 -2.3360 0
M  V30 3 Pb -3.1975 2.4707 -3.1237 0
M  V30 4 Pb -3.1764 3.0068 -1.1997 0
M  V30 5 Pb -4.0264 2.2855 -2.0216 0
M  V30 6 Pd -0.0858 -4.9204 -3.0866 0
M  V30 7 Pb 0.3275 -4.1271 -2.6372 0
M  V30 8 Pb -0.5589 -5.6394 -3.5884 0
M  V30 9 Pb -0.7036 -5.1126 -2.3247 0
M  V30 10 Pb 0.3380 -4.6487 -3.9498 0
M  V30 11 Pd 5.9760 0.8067 1.7996 0
M  V30 12 Pb 5.5588 1.2184 0.9586 0
M  V30 13 Pb 5.8463 -0.1241 1.4566 0
M  V30 14 Pb 6.3272 0.4251 2.6548 0
M  V30 15 Pb 6.1593 1.7119 2.1579 0
M  V30 16 Pd 3.4356 -0.3101 6.2926 0
M  V30 17 Pb 4.4023 -0.3676 6.0372 0
M  V30 18 Pb 2.4678 -0.2349 6.5252 0
M  V30 19 Pb 3.3159 -1.2781 6.0746 0
M  V30 20 Pb 3.4945 0.6752 6.4671 0
M  V30 21 Pd 1.9869 -2.7624 1.7463 0
M  V30 22 Pb 1.8129 -2.4859 0.8034 0
M  V30 23 Pb 2.9514 -2.8617 1.5115 0
M  V30 24 Pb 2.1734 -3.0583 2.6848 0
M  V30 25 Pb 1.0215 -2.5984 1.9449 0
M  V30 26 Pd -1.3076 4.8482 5.0974 0
M  V30 27 Pb -1.4315 3.9963 5.6011 0
M  V30 28 Pb -1.1432 5.6399 4.5142 0
M  V30 29 Pb -2.1040 4.6627 4.5279 0
M  V30 30 Pb -0.4231 4.9336 5.5587 0
M  V30 31 Pd 2.2957 4.8651 -0.7505 0
M  V30 32 Pb 1.6481 4.5090 -1.4294 0
M  V30 33 Pb 1.6650 5.5931 -0.4958 0
M  V30 34 Pb 2.9281 5.2730 -0.1066 0
M  V30 35 Pb 2.9443 4.0858 -0.8878 0
M  V30 36 Pd -4.7198 -2.4679 -1.7339 0
M  V30 37 Pb -4.2314 -2.2324 -0.8935 0
M  V30 38 Pb -5.2583 -2.7119 -2.5515 0
M  V30 39 Pb -4.2748 -3.3645 -1.6352 0
M  V30 40 Pb -5.1571 -1.5661 -1.7551 0
M  V30 41 Pd -4.4029 -2.7960 -7.2032 0
M  V30 42 Pb -4.3604 -3.7906 -7.1715 0
M  V30 43 Pb -4.3611 -1.8009 -7.1478 0
M  V30 44 Pb -5.2109 -2.8266 -6.6139 0
M  V30 45 Pb -3.4836 -2.8056 -7.5953 0
M  V30 46 Ag 0.2959 -2.4290 2.0240 0
M  V30 47 Fe -1.8099 -2.2548 0.9402 0
M  V30 48 Ag -3.8600 -2.1214 -0.2511 0
M  V30 49 Ag 1.7482 -0.0991 6.6768 0
M  V30 50 Fe 0.0381 1.5200 6.3971 0
M  V30 51 Ag -1.4232 3.3313 5.9413 0
M  V30 52 Ag 6.2160 2.4208 2.3512 0
M  V30 53 Fe 5.0426 4.3301 1.6455 0
M  V30 54 Ag 3.4287 5.4881 0.3901 0
M  V30 55 Ag 0.4679 -4.4120 -4.6483 0
M  V30 56 Fe -0.9046 -3.5944 -6.4034 0
M  V30 57 Ag -2.7467 -2.8709 -7.7131 0
M  V30 58 Ag -0.9920 -6.0614 -4.0229 0
M  V30 59 Fe -2.6801 -5.6255 -5.6216 0
M  V30 60 Ag -4.2054 -4.5068 -7.0416 0
M  V30 61 Ag 3.4325 1.4167 6.5795 0
M  V30 62 Fe 1.9511 3.2538 6.2890 0
M  V30 63 Ag 0.2621 4.8719 5.8613 0
M  V30 64 Ag -3.3417 3.2078 -0.4939 0
M  V30 65 Fe -2.9673 3.8570 1.7601 0
M  V30 66 Ag -2.6291 4.5085 4.0192 0
M  V30 67 Ag -3.3110 2.2960 -3.8434 0
M  V30 68 Fe -3.7868 0.6558 -5.4914 0
M  V30 69 Ag -4.2590 -1.0660 -7.0550 0
M  V30 70 Ag -1.0288 6.1457 3.9769 0
M  V30 71 Fe 0.0283 6.3439 1.8651 0
M  V30 72 Ag 1.2303 6.0993 -0.1624 0
M  V30 73 Ba 0.6218 -3.4893 -2.3708 0
M  V30 74 Ga 1.1505 -2.9189 -1.1181 0
M  V30 75 Ba 1.6930 -2.2791 0.0947 0
M  V30 76 Ba -1.5392 3.3101 -2.5870 0
M  V30 77 Ga -0.2007 3.8007 -2.1872 0
M  V30 78 Ba 1.1814 4.2901 -1.9787 0
M  V30 79 Ba 3.1942 -1.9935 5.8871 0
M  V30 80 Ga 2.7657 -2.6505 4.6370 0
M  V30 81 Ba 2.3362 -3.2934 3.3799 0
M  V30 82 Ba 5.2604 1.5022 0.3028 0
M  V30 83 Ga 4.3267 2.5344 -0.2650 0
M  V30 84 Ba 3.4364 3.4997 -0.9968 0
M  V30 85 Ba 6.5590 0.1556 3.3155 0
M  V30 86 Ga 5.8571 -0.1390 4.5804 0
M  V30 87 Ba 5.1223 -0.4221 5.8291 0
M  V30 88 Ba -1.2701 -5.2707 -1.8573 0
M  V30 89 Ga -2.5882 -4.6292 -1.6423 0
M  V30 90 Ba -3.9102 -3.9952 -1.4291 0
M  V30 91 Ba -4.6850 1.9362 -1.9367 0
M  V30 92 Ga -5.0897 0.5189 -1.8442 0
M  V30 93 Ba -5.5005 -0.8967 -1.7516 0
M  V30 94 Ba -5.7293 -2.8378 -3.1335 0
M  V30 95 Ga -5.7280 -2.8638 -4.6163 0
M  V30 96 Ba -5.7535 -2.8996 -6.0987 0
M  V30 97 Ba 5.7874 -0.8401 1.2385 0
M  V30 98 Ga 4.7343 -1.8713 1.2644 0
M  V30 99 Ba 3.6674 -2.8879 1.2973 0
M  V30 END ATOM
M  V30 BEGIN BOND
M  V30 1 1 1 2
M  V30 2 1 1 3
M  V30 3 1 1 4
M  V30 4 1 1 5
M  V30 5 1 6 7
M  V30 6 1 6 8
M  V30 7 1 6 9
M  V30 8 1 6 10
M  V30 9 1 11 12
M  V30 10 1 11 13
M  V30 11 1 11 14
M  V30 12 1 11 15
M  V30 13 1 16 17
M  V30 14 1 16 18
M  V30 15 1 16 19
M  V30 16 1 16 20
M  V30 17 1 21 22
M  V30 18 1 21 23
M  V30 19 1 21 24
M  V30 20 1 21 25
M  V30 21 1 26 27
M  V30 22 1 26 28
M  V30 23 1 26 29
M  V30 24 1 26 30
M  V30 25 1 31 32
M  V30 26 1 31 33
M  V30 27 1 31 34
M  V30 28 1 31 35
M  V30 29 1 36 37
M  V30 30 1 36 38
M  V30 31 1 36 39
M  V30 32 1 36 40
M  V30 33 1 41 42
M  V30 34 1 41 43
M  V30 35 1 41 44
M  V30 36 1 41 45
M  V30 37 1 46 47
M  V30 38 1 47 48
M  V30 39 1 49 50
M  V30 40 1 50 51
M  V30 41 1 52 53
M  V30 42 1 53 54
M  V30 43 1 55 56
M  V30 44 1 56 57
M  V30 45 1 58 59
M  V30 46 1 59 60
M  V30 47 1 61 62
M  V30 48 1 62 63
M  V30 49 1 64 65
M  V30 50 1 65 66
M  V30 51 1 67 68
M  V30 52 1 68 69
M  V30 53 1 70 71
M  V30 54 1 71 72
M  V30 55 1 73 74
M  V30 56 1 74 75
M  V30 57 1 76 77
M  V30 58 1 77 78
M  V30 59 1 79 80
M  V30 60 1 80 81
M  V30 61 1 82 83
M  V30 62 1 83 84
M  V30 63 1 85 86
M  V30 64 1 86 87
M  V30 65 1 88 89
M  V30 66 1 89 90
M  V30 67 1 91 92
M  V30 68 1 92 93
M  V30 69 1 94 95
M  V30 70 1 95 96
M  V30 71 1 97 98
M  V30 72 1 98 99
M  V30 73 1 2 76
M  V30 74 1 3 67
M  V30 75 1 4 64
M  V30 76 1 5 91
M  V30 77 1 7 73
M  V30 78 1 8 58
M  V30 79 1 9 88
M  V30 80 1 10 55
M  V30 81 1 12 82
M  V30 82 1 13 97
M  V30 83 1 14 85
M  V30 84 1 15 52
M  V30 85 1 17 87
M  V30 86 1 18 49
M  V30 87 1 19 79
M  V30 88 1 20 61
M  V30 89 1 22 75
M  V30 90 1 23 99
M  V30 91 1 24 81
M  V30 92 1 25 46
M  V30 93 1 27 51
M  V30 94 1 28 70
M  V30 95 1 29 66
M  V30 96 1 30 63
M  V30 97 1 32 78
M  V30 98 1 33 72
M  V30 99 1 34 54
M  V30 100 1 35 84
M  V30 101 1 37 48
M  V30 102 1 38 94
M  V30 103 1 39 90
M  V30 104 1 40 93
M  V30 105 1 42 60
M  V30 106 1 43 69
M  V30 107 1 44 96
M  V30 108 1 45 57
M  V30 END BOND
M  V30 END CTAB
M  END

$$$$
