
     RDKit          3D

  0  0  0  0  0  0  0  0  0  0999 V3000
M  V30 BEGIN CTAB
M  V30 COUNTS 99 108 0 0 0
M  V30 BEGIN ATOM
M  V30 1 Pd -1.4535 4.1552 -1.8571 0
M  V30 2 Pb -2.3601 3.7453 -1.9255 0
M  V30 3 Pb -0.5649 4.6199 -1.8658 0
M  V30 4 Pb -1.3103 3.9402 -2.8253 0
M  V30 5 Pb -1.6601 4.3564 -0.8924 0
M  V30 6 Pd 5.1013 2.8134 4.5579 0
M  V30 7 Pb 4.8641 1.8592 4.7358 0
M  V30 8 Pb 5.3792 3.7712 4.3808 0
M  V30 9 Pb 4.3402 3.1062 5.1421 0
M  V30 10 Pb 5.8323 2.5287 3.9422 0
M  V30 11 Pd -4.6824 -7.1991 -0.0571 0
M  V30 12 Pb -5.4291 -6.5538 0.0948 0
M  V30 13 Pb -4.3679 -7.0917 0.8865 0
M  V30 14 Pb -3.8702 -7.7217 -0.3022 0
M  V30 15 Pb -4.9492 -7.2125 -1.0184 0
M  V30 16 Pd 1.9861 -5.0999 -2.3329 0
M  V30 17 Pb 1.3789 -5.8930 -2.3118 0
M  V30 18 Pb 1.5085 -4.6967 -3.1411 0
M  V30 19 Pb 2.3727 -5.4387 -1.4767 0
M  V30 20 Pb 2.5990 -4.3206 -2.3056 0
M  V30 21 Pd 0.4143 -3.5795 4.5014 0
M  V30 22 Pb 1.2330 -3.0334 4.6770 0
M  V30 23 Pb -0.3887 -4.1637 4.3651 0
M  V30 24 Pb 0.9993 -4.2807 4.0970 0
M  V30 25 Pb -0.1620 -2.8183 4.8006 0
M  V30 26 Pd -0.5244 -0.2958 -5.1241 0
M  V30 27 Pb -0.3037 -1.2929 -5.0556 0
M  V30 28 Pb -1.3868 -0.4886 -5.6006 0
M  V30 29 Pb -0.7036 0.6870 -5.2047 0
M  V30 30 Pb 0.3441 -0.0791 -4.6971 0
M  V30 31 Pd -5.8596 -1.7001 -4.1878 0
M  V30 32 Pb -5.8393 -0.7638 -3.8464 0
M  V30 33 Pb -5.3020 -1.4458 -4.9794 0
M  V30 34 Pb -5.8558 -2.6579 -4.4664 0
M  V30 35 Pb -6.3538 -1.9930 -3.3685 0
M  V30 36 Pd -0.3198 4.0411 3.9772 0
M  V30 37 Pb -0.7024 3.1562 4.2520 0
M  V30 38 Pb 0.0414 4.9371 3.7355 0
M  V30 39 Pb 0.3738 3.9564 4.6986 0
M  V30 40 Pb -1.0020 4.1660 3.2515 0
M  V30 41 Pd 5.3353 6.8243 0.5411 0
M  V30 42 Pb 5.7005 6.7062 1.4730 0
M  V30 43 Pb 4.8399 6.8046 -0.3236 0
M  V30 44 Pb 4.5693 7.3190 0.9357 0
M  V30 45 Pb 6.0611 6.2342 0.1976 0
M  V30 46 Ag 4.7065 1.1410 4.8792 0
M  V30 47 Fe 3.2483 -0.7321 4.8292 0
M  V30 48 Ag 1.8674 -2.6635 4.8275 0
M  V30 49 Ag -3.0460 3.4634 -2.0192 0
M  V30 50 Fe -4.4474 1.7061 -2.7760 0
M  V30 51 Ag -5.8033 -0.0806 -3.5468 0
M  V30 52 Ag -0.5755 -2.2131 4.9632 0
M  V30 53 Fe -0.8028 0.1432 4.7479 0
M  V30 54 Ag -0.9774 2.5008 4.4994 0
M  V30 55 Ag 2.5729 -5.6655 -0.7920 0
M  V30 56 Fe 2.1138 -5.3175 1.5102 0
M  V30 57 Ag 1.4446 -4.7448 3.7138 0
M  V30 58 Ag -5.1255 -7.1162 -1.7382 0
M  V30 59 Fe -5.5229 -5.3873 -3.3112 0
M  V30 60 Ag -5.8518 -3.3990 -4.5603 0
M  V30 61 Ag 6.3363 2.4531 3.4002 0
M  V30 62 Fe 6.8263 3.8092 1.5315 0
M  V30 63 Ag 6.5480 5.6794 0.1198 0
M  V30 64 Ag -5.9326 -5.9999 0.0869 0
M  V30 65 Fe -6.4558 -4.0879 -1.2198 0
M  V30 66 Ag -6.6651 -2.2859 -2.7517 0
M  V30 67 Ag 2.9537 -3.6735 -2.3297 0
M  V30 68 Fe 2.3595 -1.5844 -3.2350 0
M  V30 69 Ag 1.0032 -0.0297 -4.3669 0
M  V30 70 Ag -3.2372 -8.0108 -0.5731 0
M  V30 71 Fe -1.1144 -7.3648 -1.4132 0
M  V30 72 Ag 0.9440 -6.4949 -2.2108 0
M  V30 73 Ag 0.3174 5.6007 3.5367 0
M  V30 74 Fe 2.0724 6.7446 2.4334 0
M  V30 75 Ag 3.9600 7.5777 1.2728 0
M  V30 76 Ag 0.0885 4.9744 -1.9890 0
M  V30 77 Fe 2.2295 5.8582 -1.4573 0
M  V30 78 Ag 4.3662 6.7349 -0.8978 0
M  V30 79 Ag -4.1138 -6.9575 1.5799 0
M  V30 80 Fe -2.5483 -5.7996 2.9429 0
M  V30 81 Ag -0.9735 -4.6303 4.2853 0
M  V30 82 Ba 1.1241 -4.4210 -3.7504 0
M  V30 83 Ga 0.5202 -3.1763 -4.3323 0
M  V30 84 Ba -0.1398 -2.0478 -5.0694 0
M  V30 85 Ba 5.6484 4.4759 4.2682 0
M  V30 86 Ga 5.7613 5.5104 3.2031 0
M  V30 87 Ba 5.9132 6.5935 2.1924 0
M  V30 88 Ba 3.7626 3.3088 5.5808 0
M  V30 89 Ga 2.3257 3.6081 5.3910 0
M  V30 90 Ba 0.8847 3.9156 5.2519 0
M  V30 91 Ba -1.2336 3.7894 -3.5580 0
M  V30 92 Ga -1.0199 2.5930 -4.3988 0
M  V30 93 Ba -0.8076 1.4279 -5.2829 0
M  V30 94 Ba -1.9413 4.4774 -0.2000 0
M  V30 95 Ga -1.6489 4.3747 1.2490 0
M  V30 96 Ba -1.5148 4.3316 2.7242 0
M  V30 97 Ba -2.0194 -0.5982 -5.9961 0
M  V30 98 Ga -3.4377 -0.9397 -5.7550 0
M  V30 99 Ba -4.8646 -1.2784 -5.5668 0
M  V30 END ATOM
M  V30 BEGIN BOND
M  V30 1 1 1 2
M  V30 2 1 1 3
M  V30 3 1 1 4
M  V30 4 1 1 5
M  V30 5 1 6 7
M  V30 6 1 6 8
M  V30 7 1 6 9
M  V30 8 1 6 10
M  V30 9 1 11 12
M  V30 10 1 11 13
M  V30 11 1 11 14
M  V30 12 1 11 15
M  V30 13 1 16 17
M  V30 14 1 16 18
M  V30 15 1 16 19
M  V30 16 1 16 20
M  V30 17 1 21 22
M  V30 18 1 21 23
M  V30 19 1 21 24
M  V30 20 1 21 25
M  V30 21 1 26 27
M  V30 22 1 26 28
M  V30 23 1 26 29
M  V30 24 1 26 30
M  V30 25 1 31 32
M  V30 26 1 31 33
M  V30 27 1 31 34
M  V30 28 1 31 35
M  V30 29 1 36 37
M  V30 30 1 36 38
M  V30 31 1 36 39
M  V30 32 1 36 40
M  V30 33 1 41 42
M  V30 34 1 41 43
M  V30 35 1 41 44
M  V30 36 1 41 45
M  V30 37 1 46 47
M  V30 38 1 47 48
M  V30 39 1 49 50
M  V30 40 1 50 51
M  V30 41 1 52 53
M  V30 42 1 53 54
M  V30 43 1 55 56
M  V30 44 1 56 57
M  V30 45 1 58 59
M  V30 46 1 59 60
M  V30 47 1 61 62
M  V30 48 1 62 63
M  V30 49 1 64 65
M  V30 50 1 65 66
M  V30 51 1 67 68
M  V30 52 1 68 69
M  V30 53 1 70 71
M  V30 54 1 71 72
M  V30 55 1 73 74
M  V30 56 1 74 75
M  V30 57 1 76 77
M  V30 58 1 77 78
M  V30 59 1 79 80
M  V30 60 1 80 81
M  V30 61 1 82 83
M  V30 62 1 83 84
M  V30 63 1 85 86
M  V30 64 1 86 87
M  V30 65 1 88 89
M  V30 66 1 89 90
M  V30 67 1 91 92
M  V30 68 1 92 93
M  V30 69 1 94 95
M  V30 70 1 95 96
M  V30 71 1 97 98
M  V30 72 1 98 99
M  V30 73 1 2 49
M  V30 74 1 3 76
M  V30 75 1 4 91
M  V30 76 1 5 94
M  V30 77 1 7 46
M  V30 78 1 8 85
M  V30 79 1 9 88
M  V30 80 1 10 61
M  V30 81 1 12 64
M  V30 82 1 13 79
M  V30 83 1 14 70
M  V30 84 1 15 58
M  V30 85 1 17 72
M  V30 86 1 18 82
M  V30 87 1 19 55
M  V30 88 1 20 67
M  V30 89 1 22 48
M  V30 90 1 23 81
M  V30 91 1 24 57
M  V30 92 1 25 52
M  V30 93 1 27 84
M  V30 94 1 28 97
M  V30 95 1 29 93
M  V30 96 1 30 69
M  V30 97 1 32 51
M  V30 98 1 33 99
M  V30 99 1 34 60
M  V30 100 1 35 66
M  V30 101 1 37 54
M  V30 102 1 38 73
M  V30 103 1 39 90
M  V30 104 1 40 96
M  V30 105 1 42 87
M  V30 106 1 43 78
M  V30 107 1 44 75
M  V30 108 1 45 63
M  V30 END BOND
M  V30 END CTAB
M  END

$$$$
