
     RDKit          3D

  0  0  0  0  0  0  0  0  0  0999 V3000
M  V30 BEGIN CTAB
M  V30 COUNTS 99 108 0 0 0
M  V30 BEGIN ATOM
M  V30 1 Pd -5.0607 0.2617 -1.9544 0
M  V30 2 Pb -5.0832 0.2931 -2.9527 0
M  V30 3 Pb -5.0583 0.2252 -0.9527 0
M  V30 4 Pb -6.0193 0.5378 -1.9126 0
M  V30 5 Pb -4.0784 0.0777 -2.0066 0
M  V30 6 Pd -6.4552 3.9116 0.9648 0
M  V30 7 Pb -6.5018 4.7580 0.4362 0
M  V30 8 Pb -7.0844 3.4517 0.3389 0
M  V30 9 Pb -6.2696 3.0269 1.3877 0
M  V30 10 Pb -5.8045 4.3593 1.5760 0
M  V30 11 Pd 1.0258 -5.7490 -1.2648 0
M  V30 12 Pb 1.8676 -5.9473 -1.7684 0
M  V30 13 Pb 0.2489 -5.4240 -0.7271 0
M  V30 14 Pb 1.4624 -6.0234 -0.4108 0
M  V30 15 Pb 0.5739 -5.4698 -2.1122 0
M  V30 16 Pd 5.7094 -3.4147 4.0973 0
M  V30 17 Pb 5.2053 -3.1644 4.9296 0
M  V30 18 Pb 6.1807 -3.6168 3.2367 0
M  V30 19 Pb 6.2996 -2.6275 4.2509 0
M  V30 20 Pb 5.1052 -4.1863 3.9163 0
M  V30 21 Pd -1.1703 0.1243 -5.5181 0
M  V30 22 Pb -0.1796 0.0601 -5.4036 0
M  V30 23 Pb -1.1376 1.1230 -5.4661 0
M  V30 24 Pb -1.2024 -0.8739 -5.5078 0
M  V30 25 Pb -2.1628 0.1726 -5.6240 0
M  V30 26 Pd -2.2671 5.7442 -0.6532 0
M  V30 27 Pb -3.1632 6.1245 -0.8948 0
M  V30 28 Pb -1.3928 5.3383 -0.3857 0
M  V30 29 Pb -2.5204 5.8340 0.3078 0
M  V30 30 Pb -2.0348 5.5937 -1.6144 0
M  V30 31 Pd 5.0289 -2.5726 -1.5129 0
M  V30 32 Pb 4.5371 -2.1432 -2.2716 0
M  V30 33 Pb 5.0627 -1.6680 -1.0842 0
M  V30 34 Pb 4.9245 -3.4772 -1.9349 0
M  V30 35 Pb 5.5979 -2.9808 -0.7913 0
M  V30 36 Pd -0.6211 0.8252 1.2109 0
M  V30 37 Pb -0.4577 0.9915 2.1840 0
M  V30 38 Pb -0.9886 -0.0869 1.3917 0
M  V30 39 Pb -0.7813 0.6310 0.2440 0
M  V30 40 Pb -0.2255 1.7203 0.9952 0
M  V30 41 Pd 3.7162 0.9091 4.7236 0
M  V30 42 Pb 4.7034 0.7689 4.7479 0
M  V30 43 Pb 3.6352 0.2942 5.5071 0
M  V30 44 Pb 3.8400 1.3392 3.8334 0
M  V30 45 Pb 2.7254 1.0580 4.7136 0
M  V30 46 Ag 1.7723 -6.2005 0.2461 0
M  V30 47 Fe 3.2015 -5.5484 2.0224 0
M  V30 48 Ag 4.6607 -4.7504 3.7127 0
M  V30 49 Ag 5.0149 -0.9808 -0.7829 0
M  V30 50 Fe 4.5276 0.3779 1.1031 0
M  V30 51 Ag 4.0091 1.5086 3.1257 0
M  V30 52 Ag -1.1361 1.8690 -5.3842 0
M  V30 53 Fe -1.4788 3.6994 -3.9093 0
M  V30 54 Ag -1.8537 5.4278 -2.3234 0
M  V30 55 Ag 0.5595 -0.0289 -5.3174 0
M  V30 56 Fe 2.3719 -0.9126 -4.0616 0
M  V30 57 Ag 4.2205 -1.7760 -2.8453 0
M  V30 58 Ag 0.2303 -5.2501 -2.7416 0
M  V30 59 Fe -0.5038 -3.4742 -4.1362 0
M  V30 60 Ag -1.1910 -1.6204 -5.4508 0
M  V30 61 Ag -0.2644 -5.0970 -0.2901 0
M  V30 62 Fe -0.8692 -3.0009 0.6471 0
M  V30 63 Ag -1.2392 -0.7922 1.4363 0
M  V30 64 Ba -0.3367 1.1224 2.9131 0
M  V30 65 Ga 0.8373 1.1407 3.8087 0
M  V30 66 Ba 1.9824 1.1706 4.7407 0
M  V30 67 Ba -5.2895 4.7129 1.9881 0
M  V30 68 Ga -4.0094 5.3093 1.5743 0
M  V30 69 Ba -2.7636 5.8570 1.0144 0
M  V30 70 Ba -5.1118 0.2179 -0.2022 0
M  V30 71 Ga -5.5802 1.2366 0.7576 0
M  V30 72 Ba -6.0663 2.3410 1.6071 0
M  V30 73 Ba 6.6819 -1.9992 4.3719 0
M  V30 74 Ga 6.1397 -0.6499 4.5743 0
M  V30 75 Ba 5.4366 0.6262 4.7573 0
M  V30 76 Ba -6.7123 0.8123 -1.8475 0
M  V30 77 Ga -7.1854 1.9298 -1.0123 0
M  V30 78 Ba -7.5199 3.0604 -0.1291 0
M  V30 79 Ba -3.3371 -0.0079 -2.0917 0
M  V30 80 Ga -2.1304 0.2115 -1.2715 0
M  V30 81 Ba -0.9141 0.4251 -0.4642 0
M  V30 82 Ba -6.4258 5.3683 0.0078 0
M  V30 83 Ga -5.1757 5.9327 -0.5405 0
M  V30 84 Ba -3.8562 6.3904 -1.0218 0
M  V30 85 Ba 2.5258 -6.0252 -2.1221 0
M  V30 86 Ga 3.6899 -5.1166 -2.2022 0
M  V30 87 Ba 4.8159 -4.1586 -2.2384 0
M  V30 88 Ba -0.7432 5.0260 -0.1767 0
M  V30 89 Ga -0.3365 3.6991 0.3279 0
M  V30 90 Ba 0.0958 2.3809 0.8340 0
M  V30 91 Ba -5.0823 0.3090 -3.7016 0
M  V30 92 Ga -4.0096 0.2633 -4.7111 0
M  V30 93 Ba -2.9080 0.2153 -5.6890 0
M  V30 94 Ba 4.8328 -2.9190 5.5386 0
M  V30 95 Ga 4.2089 -1.6124 5.8424 0
M  V30 96 Ba 3.6285 -0.2622 6.0101 0
M  V30 97 Ba 6.5220 -3.7709 2.5848 0
M  V30 98 Ga 6.2600 -3.5142 1.1510 0
M  V30 99 Ba 6.0750 -3.3024 -0.3017 0
M  V30 END ATOM
M  V30 BEGIN BOND
M  V30 1 1 1 2
M  V30 2 1 1 3
M  V30 3 1 1 4
M  V30 4 1 1 5
M  V30 5 1 6 7
M  V30 6 1 6 8
M  V30 7 1 6 9
M  V30 8 1 6 10
M  V30 9 1 11 12
M  V30 10 1 11 13
M  V30 11 1 11 14
M  V30 12 1 11 15
M  V30 13 1 16 17
M  V30 14 1 16 18
M  V30 15 1 16 19
M  V30 16 1 16 20
M  V30 17 1 21 22
M  V30 18 1 21 23
M  V30 19 1 21 24
M  V30 20 1 21 25
M  V30 21 1 26 27
M  V30 22 1 26 28
M  V30 23 1 26 29
M  V30 24 1 26 30
M  V30 25 1 31 32
M  V30 26 1 31 33
M  V30 27 1 31 34
M  V30 28 1 31 35
M  V30 29 1 36 37
M  V30 30 1 36 38
M  V30 31 1 36 39
M  V30 32 1 36 40
M  V30 33 1 41 42
M  V30 34 1 41 43
M  V30 35 1 41 44
M  V30 36 1 41 45
M  V30 37 1 46 47
M  V30 38 1 47 48
M  V30 39 1 49 50
M  V30 40 1 50 51
M  V30 41 1 52 53
M  V30 42 1 53 54
M  V30 43 1 55 56
M  V30 44 1 56 57
M  V30 45 1 58 59
M  V30 46 1 59 60
M  V30 47 1 61 62
M  V30 48 1 62 63
M  V30 49 1 64 65
M  V30 50 1 65 66
M  V30 51 1 67 68
M  V30 52 1 68 69
M  V30 53 1 70 71
M  V30 54 1 71 72
M  V30 55 1 73 74
M  V30 56 1 74 75
M  V30 57 1 76 77
M  V30 58 1 77 78
M  V30 59 1 79 80
M  V30 60 1 80 81
M  V30 61 1 82 83
M  V30 62 1 83 84
M  V30 63 1 85 86
M  V30 64 1 86 87
M  V30 65 1 88 89
M  V30 66 1 89 90
M  V30 67 1 91 92
M  V30 68 1 92 93
M  V30 69 1 94 95
M  V30 70 1 95 96
M  V30 71 1 97 98
M  V30 72 1 98 99
M  V30 73 1 2 91
M  V30 74 1 3 70
M  V30 75 1 4 76
M  V30 76 1 5 79
M  V30 77 1 7 82
M  V30 78 1 8 78
M  V30 79 1 9 72
M  V30 80 1 10 67
M  V30 81 1 12 85
M  V30 82 1 13 61
M  V30 83 1 14 46
M  V30 84 1 15 58
M  V30 85 1 17 94
M  V30 86 1 18 97
M  V30 87 1 19 73
M  V30 88 1 20 48
M  V30 89 1 22 55
M  V30 90 1 23 52
M  V30 91 1 24 60
M  V30 92 1 25 93
M  V30 93 1 27 84
M  V30 94 1 28 88
M  V30 95 1 29 69
M  V30 96 1 30 54
M  V30 97 1 32 57
M  V30 98 1 33 49
M  V30 99 1 34 87
M  V30 100 1 35 99
M  V30 101 1 37 64
M  V30 102 1 38 63
M  V30 103 1 39 81
M  V30 104 1 40 90
M  V30 105 1 42 75
M  V30 106 1 43 96
M  V30 107 1 44 51
M  V30 108 1 45 66
M  V30 END BOND
M  V30 END CTAB
M  END

$$$$
