
     RDKit          3D

  0  0  0  0  0  0  0  0  0  0999 V3000
M  V30 BEGIN CTAB
M  V30 COUNTS 99 108 0 0 0
M  V30 BEGIN ATOM
M  V30 1 Pd 0.3784 3.7351 -1.9199 0
M  V30 2 Pb 0.3416 3.6764 -2.9197 0
M  V30 3 Pb -0.1675 4.5715 -1.9153 0
M  V30 4 Pb 0.3600 3.8055 -0.9218 0
M  V30 5 Pb 0.8475 2.8496 -1.9039 0
M  V30 6 Pd -2.0389 -4.0589 -3.0999 0
M  V30 7 Pb -2.7715 -4.6745 -2.8292 0
M  V30 8 Pb -2.7045 -3.3116 -3.1086 0
M  V30 9 Pb -1.3705 -4.7684 -2.9129 0
M  V30 10 Pb -1.3401 -3.4199 -3.4044 0
M  V30 11 Pd 4.9376 -1.7111 1.1514 0
M  V30 12 Pb 4.3125 -1.5357 0.3918 0
M  V30 13 Pb 5.5383 -1.8672 1.9405 0
M  V30 14 Pb 5.2247 -0.7602 1.0264 0
M  V30 15 Pb 4.6426 -2.6654 1.2210 0
M  V30 16 Pd -4.4464 -1.8791 -0.4645 0
M  V30 17 Pb -4.0345 -1.0194 -0.1471 0
M  V30 18 Pb -4.0895 -2.3347 0.3574 0
M  V30 19 Pb -4.8658 -2.7491 -0.7105 0
M  V30 20 Pb -4.7622 -1.5089 -1.3537 0
M  V30 21 Pd 3.2061 5.0063 3.0254 0
M  V30 22 Pb 2.3257 4.8760 2.5687 0
M  V30 23 Pb 3.7191 4.7894 2.2004 0
M  V30 24 Pb 4.0740 4.9918 3.5160 0
M  V30 25 Pb 2.7495 4.9667 3.9120 0
M  V30 26 Pd -4.2770 3.2843 -1.6178 0
M  V30 27 Pb -4.5420 2.3485 -1.8427 0
M  V30 28 Pb -4.6626 3.5970 -2.4811 0
M  V30 29 Pb -3.8614 2.9002 -0.7999 0
M  V30 30 Pb -3.8945 4.1941 -1.4650 0
M  V30 31 Pd 0.2474 -4.6132 1.6293 0
M  V30 32 Pb 0.1485 -5.0584 0.7363 0
M  V30 33 Pb 1.2256 -4.8112 1.5633 0
M  V30 34 Pb -0.7310 -4.3879 1.7255 0
M  V30 35 Pb 0.4039 -4.2568 2.5504 0
M  V30 36 Pd -2.7052 0.8995 -5.1038 0
M  V30 37 Pb -3.4618 0.3064 -4.8004 0
M  V30 38 Pb -3.3812 1.6045 -5.3105 0
M  V30 39 Pb -1.9943 0.2259 -4.8955 0
M  V30 40 Pb -1.9707 1.5379 -5.3383 0
M  V30 41 Pd 4.6760 -0.4760 6.3450 0
M  V30 42 Pb 4.0319 0.1970 6.7124 0
M  V30 43 Pb 5.3494 0.2592 6.3165 0
M  V30 44 Pb 5.3104 -1.0799 5.8599 0
M  V30 45 Pb 3.9453 -1.1559 6.2996 0
M  V30 46 Ag 4.6865 4.8312 3.9104 0
M  V30 47 Fe 5.4802 2.9757 5.1510 0
M  V30 48 Ag 5.7490 0.8837 6.2300 0
M  V30 49 Ag 1.1508 2.1613 -1.9232 0
M  V30 50 Fe 2.4989 0.4100 -1.0500 0
M  V30 51 Ag 3.8534 -1.3296 -0.1636 0
M  V30 52 Ag 0.5613 -4.0413 3.2514 0
M  V30 53 Fe 1.9444 -2.8400 4.7623 0
M  V30 54 Ag 3.3600 -1.6180 6.2260 0
M  V30 55 Ag 5.3601 -0.0432 0.8454 0
M  V30 56 Fe 4.8454 2.2543 1.1545 0
M  V30 57 Ag 4.1565 4.4618 1.6921 0
M  V30 58 Ag 2.5024 4.7488 4.5838 0
M  V30 59 Fe 2.8764 2.8378 5.9422 0
M  V30 60 Ag 3.5816 0.7738 6.8813 0
M  V30 61 Ag -3.2117 -2.7620 -3.0340 0
M  V30 62 Fe -3.8219 -0.5498 -2.4066 0
M  V30 63 Ag -4.6764 1.6385 -2.0393 0
M  V30 64 Ba 0.2593 3.9192 -0.1862 0
M  V30 65 Ga 1.0112 4.3185 1.0198 0
M  V30 66 Ba 1.6477 4.7093 2.2931 0
M  V30 67 Ba 5.9619 -2.0296 2.5430 0
M  V30 68 Ga 5.8838 -1.7606 3.9955 0
M  V30 69 Ba 5.7919 -1.4815 5.4453 0
M  V30 70 Ba -0.6392 5.1479 -1.8367 0
M  V30 71 Ga -2.0962 5.0954 -1.6261 0
M  V30 72 Ba -3.5359 4.8506 -1.4329 0
M  V30 73 Ba -4.8978 3.7452 -3.1722 0
M  V30 74 Ga -4.4598 3.0153 -4.3680 0
M  V30 75 Ba -3.8808 2.1527 -5.4052 0
M  V30 76 Ba 0.3001 3.6157 -3.6683 0
M  V30 77 Ga -0.5480 2.8289 -4.5873 0
M  V30 78 Ba -1.4158 2.0259 -5.4733 0
M  V30 79 Ba -3.3810 -5.0297 -2.5970 0
M  V30 80 Ga -4.3568 -4.3630 -1.7376 0
M  V30 81 Ba -5.1051 -3.4300 -0.8972 0
M  V30 82 Ba -3.8419 -2.7281 0.9528 0
M  V30 83 Ga -2.6139 -3.4490 1.3704 0
M  V30 84 Ba -1.4470 -4.2020 1.8929 0
M  V30 85 Ba -0.8955 -5.2772 -2.6527 0
M  V30 86 Ga -0.3493 -5.3726 -1.2876 0
M  V30 87 Ba 0.1752 -5.4419 0.0878 0
M  V30 88 Ba -0.8694 -2.9010 -3.6573 0
M  V30 89 Ga -1.1333 -1.5601 -4.2067 0
M  V30 90 Ba -1.4059 -0.2208 -4.7558 0
M  V30 91 Ba -5.0214 -1.3388 -2.0524 0
M  V30 92 Ga -4.5589 -0.7137 -3.3209 0
M  V30 93 Ba -4.0791 -0.0667 -4.5658 0
M  V30 94 Ba 4.4455 -3.3889 1.2688 0
M  V30 95 Ga 3.1934 -4.1605 1.3928 0
M  V30 96 Ba 1.9593 -4.9607 1.5168 0
M  V30 97 Ba -3.7178 -0.4136 0.1742 0
M  V30 98 Ga -3.6344 1.0473 -0.0206 0
M  V30 99 Ba -3.5650 2.5051 -0.2418 0
M  V30 END ATOM
M  V30 BEGIN BOND
M  V30 1 1 1 2
M  V30 2 1 1 3
M  V30 3 1 1 4
M  V30 4 1 1 5
M  V30 5 1 6 7
M  V30 6 1 6 8
M  V30 7 1 6 9
M  V30 8 1 6 10
M  V30 9 1 11 12
M  V30 10 1 11 13
M  V30 11 1 11 14
M  V30 12 1 11 15
M  V30 13 1 16 17
M  V30 14 1 16 18
M  V30 15 1 16 19
M  V30 16 1 16 20
M  V30 17 1 21 22
M  V30 18 1 21 23
M  V30 19 1 21 24
M  V30 20 1 21 25
M  V30 21 1 26 27
M  V30 22 1 26 28
M  V30 23 1 26 29
M  V30 24 1 26 30
M  V30 25 1 31 32
M  V30 26 1 31 33
M  V30 27 1 31 34
M  V30 28 1 31 35
M  V30 29 1 36 37
M  V30 30 1 36 38
M  V30 31 1 36 39
M  V30 32 1 36 40
M  V30 33 1 41 42
M  V30 34 1 41 43
M  V30 35 1 41 44
M  V30 36 1 41 45
M  V30 37 1 46 47
M  V30 38 1 47 48
M  V30 39 1 49 50
M  V30 40 1 50 51
M  V30 41 1 52 53
M  V30 42 1 53 54
M  V30 43 1 55 56
M  V30 44 1 56 57
M  V30 45 1 58 59
M  V30 46 1 59 60
M  V30 47 1 61 62
M  V30 48 1 62 63
M  V30 49 1 64 65
M  V30 50 1 65 66
M  V30 51 1 67 68
M  V30 52 1 68 69
M  V30 53 1 70 71
M  V30 54 1 71 72
M  V30 55 1 73 74
M  V30 56 1 74 75
M  V30 57 1 76 77
M  V30 58 1 77 78
M  V30 59 1 79 80
M  V30 60 1 80 81
M  V30 61 1 82 83
M  V30 62 1 83 84
M  V30 63 1 85 86
M  V30 64 1 86 87
M  V30 65 1 88 89
M  V30 66 1 89 90
M  V30 67 1 91 92
M  V30 68 1 92 93
M  V30 69 1 94 95
M  V30 70 1 95 96
M  V30 71 1 97 98
M  V30 72 1 98 99
M  V30 73 1 2 76
M  V30 74 1 3 70
M  V30 75 1 4 64
M  V30 76 1 5 49
M  V30 77 1 7 79
M  V30 78 1 8 61
M  V30 79 1 9 85
M  V30 80 1 10 88
M  V30 81 1 12 51
M  V30 82 1 13 67
M  V30 83 1 14 55
M  V30 84 1 15 94
M  V30 85 1 17 97
M  V30 86 1 18 82
M  V30 87 1 19 81
M  V30 88 1 20 91
M  V30 89 1 22 66
M  V30 90 1 23 57
M  V30 91 1 24 46
M  V30 92 1 25 58
M  V30 93 1 27 63
M  V30 94 1 28 73
M  V30 95 1 29 99
M  V30 96 1 30 72
M  V30 97 1 32 87
M  V30 98 1 33 96
M  V30 99 1 34 84
M  V30 100 1 35 52
M  V30 101 1 37 93
M  V30 102 1 38 75
M  V30 103 1 39 90
M  V30 104 1 40 78
M  V30 105 1 42 60
M  V30 106 1 43 48
M  V30 107 1 44 69
M  V30 108 1 45 54
M  V30 END BOND
M  V30 END CTAB
M  END

$$$$
