
     RDKit          3D

  0  0  0  0  0  0  0  0  0  0999 V3000
M  V30 BEGIN CTAB
M  V30 COUNTS 99 108 0 0 0
M  V30 BEGIN ATOM
M  V30 1 Pd -0.1517 -4.1598 -3.0467 0
M  V30 2 Pb -1.0832 -4.1604 -3.4125 0
M  V30 3 Pb -0.4781 -4.7615 -2.3173 0
M  V30 4 Pb 0.1535 -3.5495 -3.7790 0
M  V30 5 Pb 0.7878 -4.1839 -2.6974 0
M  V30 6 Pd 1.4383 -1.1475 7.6311 0
M  V30 7 Pb 1.3858 -0.1782 7.3823 0
M  V30 8 Pb 1.4964 -2.0985 7.9105 0
M  V30 9 Pb 2.4338 -1.1204 7.6806 0
M  V30 10 Pb 0.4752 -1.3313 7.4115 0
M  V30 11 Pd -2.6318 4.7200 0.5011 0
M  V30 12 Pb -2.8561 3.7465 0.5769 0
M  V30 13 Pb -2.3061 4.7623 1.4454 0
M  V30 14 Pb -2.3845 5.6783 0.3662 0
M  V30 15 Pb -2.9534 4.6709 -0.4421 0
M  V30 16 Pd -0.0401 6.4397 -3.4511 0
M  V30 17 Pb -0.3998 6.9943 -2.7010 0
M  V30 18 Pb 0.3043 5.8521 -4.2034 0
M  V30 19 Pb 0.6074 6.0148 -2.8190 0
M  V30 20 Pb -0.7071 6.8252 -4.0808 0
M  V30 21 Pd 1.7751 3.0117 3.4385 0
M  V30 22 Pb 1.6838 2.7299 4.3973 0
M  V30 23 Pb 0.9342 3.5412 3.5569 0
M  V30 24 Pb 1.8948 3.3468 2.5029 0
M  V30 25 Pb 2.6161 2.4872 3.3000 0
M  V30 26 Pd -1.2087 2.1863 -7.4070 0
M  V30 27 Pb -0.5117 2.8197 -7.0312 0
M  V30 28 Pb -1.9223 1.5617 -7.7213 0
M  V30 29 Pb -0.6418 1.3973 -7.1677 0
M  V30 30 Pb -1.7744 2.9739 -7.6305 0
M  V30 31 Pd -4.1054 -0.5670 -4.3613 0
M  V30 32 Pb -4.0225 -1.5624 -4.3529 0
M  V30 33 Pb -4.1450 -0.5736 -5.3603 0
M  V30 34 Pb -4.1581 0.4290 -4.3587 0
M  V30 35 Pb -4.0371 -0.5178 -3.3626 0
M  V30 36 Pd 5.4003 -3.6756 2.4653 0
M  V30 37 Pb 5.5244 -2.6925 2.3422 0
M  V30 38 Pb 5.1892 -4.6429 2.6152 0
M  V30 39 Pb 5.5916 -3.5003 3.4317 0
M  V30 40 Pb 5.1596 -3.8011 1.5018 0
M  V30 41 Pd -0.5325 -6.8777 4.2806 0
M  V30 42 Pb -0.1375 -6.8629 5.1907 0
M  V30 43 Pb -0.8999 -6.8689 3.3517 0
M  V30 44 Pb 0.2611 -7.3963 3.9689 0
M  V30 45 Pb -1.1737 -6.1735 4.6032 0
M  V30 46 Ag 3.2454 2.1180 3.1216 0
M  V30 47 Fe 4.4351 0.1025 2.7172 0
M  V30 48 Ag 5.5744 -1.9454 2.3312 0
M  V30 49 Ag 1.0832 5.6782 -2.3473 0
M  V30 50 Fe 1.5235 4.6453 -0.2539 0
M  V30 51 Ag 2.0504 3.5984 1.8124 0
M  V30 52 Ag -3.1960 4.5753 -1.1427 0
M  V30 53 Fe -3.7161 2.9629 -2.8023 0
M  V30 54 Ag -4.1679 1.1731 -4.2913 0
M  V30 55 Ag -0.1848 -1.6192 7.1796 0
M  V30 56 Fe -1.0309 -3.5390 6.0467 0
M  V30 57 Ag -1.5223 -5.5679 4.8944 0
M  V30 58 Ag 1.5075 -2.8233 8.0693 0
M  V30 59 Fe 0.9128 -4.9197 7.1557 0
M  V30 60 Ag 0.1683 -6.7465 5.8555 0
M  V30 61 Ag -3.0263 3.0147 0.5406 0
M  V30 62 Fe -3.5119 1.2295 -0.9532 0
M  V30 63 Ag -3.9712 -0.4010 -2.6221 0
M  V30 64 Ag -1.1987 6.9594 -4.6193 0
M  V30 65 Fe -1.9738 5.5838 -6.3708 0
M  V30 66 Ag -2.1221 3.6273 -7.6793 0
M  V30 67 Ag 3.1649 -1.2552 7.6008 0
M  V30 68 Fe 4.5924 -2.2345 5.9760 0
M  V30 69 Ag 5.6910 -3.2537 4.1340 0
M  V30 70 Ag 0.3890 -3.0884 -4.3227 0
M  V30 71 Fe 0.0831 -1.1459 -5.6560 0
M  V30 72 Ag -0.2283 0.7978 -6.9863 0
M  V30 73 Ag 1.5065 -4.1987 -2.4747 0
M  V30 74 Fe 3.2164 -4.0470 -0.8303 0
M  V30 75 Ag 4.9527 -3.9020 0.7868 0
M  V30 76 Ag 4.9468 -5.3494 2.6952 0
M  V30 77 Fe 3.0350 -6.6643 3.2020 0
M  V30 78 Ag 0.9409 -7.6326 3.7641 0
M  V30 79 Ag -0.7761 -5.2059 -1.7911 0
M  V30 80 Fe -0.9458 -6.0279 0.4303 0
M  V30 81 Ag -1.1391 -6.8710 2.6419 0
M  V30 82 Ba 1.3617 0.5620 7.2517 0
M  V30 83 Ga 1.4835 1.5265 6.1379 0
M  V30 84 Ba 1.5830 2.6068 5.1337 0
M  V30 85 Ba -1.7863 -4.1950 -3.6737 0
M  V30 86 Ga -2.8600 -3.2426 -4.0128 0
M  V30 87 Ba -3.9471 -2.3075 -4.3578 0
M  V30 88 Ba 0.5982 5.4267 -4.7664 0
M  V30 89 Ga 0.2408 4.3534 -5.7394 0
M  V30 90 Ba 0.0282 3.2884 -6.7627 0
M  V30 91 Ba -2.1797 6.3820 0.2125 0
M  V30 92 Ga -1.4321 6.9290 -0.9336 0
M  V30 93 Ba -0.6781 7.3755 -2.1186 0
M  V30 94 Ba -2.4638 1.0773 -7.9036 0
M  V30 95 Ga -3.3302 0.2452 -7.0496 0
M  V30 96 Ba -4.1458 -0.5443 -6.1093 0
M  V30 97 Ba -2.0614 4.8129 2.1523 0
M  V30 98 Ga -0.8716 4.3615 2.8988 0
M  V30 99 Ba 0.3027 3.9282 3.6798 0
M  V30 END ATOM
M  V30 BEGIN BOND
M  V30 1 1 1 2
M  V30 2 1 1 3
M  V30 3 1 1 4
M  V30 4 1 1 5
M  V30 5 1 6 7
M  V30 6 1 6 8
M  V30 7 1 6 9
M  V30 8 1 6 10
M  V30 9 1 11 12
M  V30 10 1 11 13
M  V30 11 1 11 14
M  V30 12 1 11 15
M  V30 13 1 16 17
M  V30 14 1 16 18
M  V30 15 1 16 19
M  V30 16 1 16 20
M  V30 17 1 21 22
M  V30 18 1 21 23
M  V30 19 1 21 24
M  V30 20 1 21 25
M  V30 21 1 26 27
M  V30 22 1 26 28
M  V30 23 1 26 29
M  V30 24 1 26 30
M  V30 25 1 31 32
M  V30 26 1 31 33
M  V30 27 1 31 34
M  V30 28 1 31 35
M  V30 29 1 36 37
M  V30 30 1 36 38
M  V30 31 1 36 39
M  V30 32 1 36 40
M  V30 33 1 41 42
M  V30 34 1 41 43
M  V30 35 1 41 44
M  V30 36 1 41 45
M  V30 37 1 46 47
M  V30 38 1 47 48
M  V30 39 1 49 50
M  V30 40 1 50 51
M  V30 41 1 52 53
M  V30 42 1 53 54
M  V30 43 1 55 56
M  V30 44 1 56 57
M  V30 45 1 58 59
M  V30 46 1 59 60
M  V30 47 1 61 62
M  V30 48 1 62 63
M  V30 49 1 64 65
M  V30 50 1 65 66
M  V30 51 1 67 68
M  V30 52 1 68 69
M  V30 53 1 70 71
M  V30 54 1 71 72
M  V30 55 1 73 74
M  V30 56 1 74 75
M  V30 57 1 76 77
M  V30 58 1 77 78
M  V30 59 1 79 80
M  V30 60 1 80 81
M  V30 61 1 82 83
M  V30 62 1 83 84
M  V30 63 1 85 86
M  V30 64 1 86 87
M  V30 65 1 88 89
M  V30 66 1 89 90
M  V30 67 1 91 92
M  V30 68 1 92 93
M  V30 69 1 94 95
M  V30 70 1 95 96
M  V30 71 1 97 98
M  V30 72 1 98 99
M  V30 73 1 2 85
M  V30 74 1 3 79
M  V30 75 1 4 70
M  V30 76 1 5 73
M  V30 77 1 7 82
M  V30 78 1 8 58
M  V30 79 1 9 67
M  V30 80 1 10 55
M  V30 81 1 12 61
M  V30 82 1 13 97
M  V30 83 1 14 91
M  V30 84 1 15 52
M  V30 85 1 17 93
M  V30 86 1 18 88
M  V30 87 1 19 49
M  V30 88 1 20 64
M  V30 89 1 22 84
M  V30 90 1 23 99
M  V30 91 1 24 51
M  V30 92 1 25 46
M  V30 93 1 27 90
M  V30 94 1 28 94
M  V30 95 1 29 72
M  V30 96 1 30 66
M  V30 97 1 32 87
M  V30 98 1 33 96
M  V30 99 1 34 54
M  V30 100 1 35 63
M  V30 101 1 37 48
M  V30 102 1 38 76
M  V30 103 1 39 69
M  V30 104 1 40 75
M  V30 105 1 42 60
M  V30 106 1 43 81
M  V30 107 1 44 78
M  V30 108 1 45 57
M  V30 END BOND
M  V30 END CTAB
M  END

$$$$
