
     RDKit          3D

  0  0  0  0  0  0  0  0  0  0999 V3000
M  V30 BEGIN CTAB
M  V30 COUNTS 99 108 0 0 0
M  V30 BEGIN ATOM
M  V30 1 Pd -0.8045 -1.7469 4.3524 0
M  V30 2 Pb -1.4307 -1.4367 5.0682 0
M  V30 3 Pb -0.1587 -2.0517 3.6510 0
M  V30 4 Pb -0.0773 -1.8658 5.0273 0
M  V30 5 Pb -1.5156 -1.5717 3.6698 0
M  V30 6 Pd 1.8720 -5.6926 -5.6380 0
M  V30 7 Pb 1.9611 -4.7122 -5.8167 0
M  V30 8 Pb 1.7432 -6.6507 -5.3881 0
M  V30 9 Pb 0.9356 -5.6426 -5.9764 0
M  V30 10 Pb 2.7656 -5.7258 -5.1882 0
M  V30 11 Pd -1.8755 5.8307 -0.7377 0
M  V30 12 Pb -1.5525 6.1345 0.1578 0
M  V30 13 Pb -2.1864 5.4988 -1.6281 0
M  V30 14 Pb -1.1836 6.3870 -1.1941 0
M  V30 15 Pb -2.5308 5.2539 -0.2492 0
M  V30 16 Pd 2.8596 4.4626 -1.1934 0
M  V30 17 Pb 2.4998 5.3258 -1.5428 0
M  V30 18 Pb 3.1832 3.5991 -0.8013 0
M  V30 19 Pb 2.7993 4.0844 -2.1177 0
M  V30 20 Pb 2.8979 4.8355 -0.2678 0
M  V30 21 Pd -0.7973 1.6872 -4.5516 0
M  V30 22 Pb -0.2763 0.8871 -4.8608 0
M  V30 23 Pb -1.3150 2.5167 -4.3278 0
M  V30 24 Pb 0.0829 2.1666 -4.5200 0
M  V30 25 Pb -1.6830 1.2189 -4.6109 0
M  V30 26 Pd 2.7948 1.6814 5.5563 0
M  V30 27 Pb 3.1502 1.3625 4.6750 0
M  V30 28 Pb 2.3765 2.0257 6.3965 0
M  V30 29 Pb 2.7013 0.7465 5.8986 0
M  V30 30 Pb 2.8543 2.6067 5.1866 0
M  V30 31 Pd -2.0265 3.0667 5.9959 0
M  V30 32 Pb -2.3644 2.1874 6.3289 0
M  V30 33 Pb -1.3496 3.0910 6.7317 0
M  V30 34 Pb -2.6531 3.0358 5.2162 0
M  V30 35 Pb -1.6720 3.9188 5.6140 0
M  V30 36 Pd -3.9027 -2.6577 -2.6440 0
M  V30 37 Pb -4.0266 -1.8304 -3.1924 0
M  V30 38 Pb -3.7188 -3.4812 -2.1080 0
M  V30 39 Pb -3.7426 -3.1698 -3.4857 0
M  V30 40 Pb -4.0099 -2.1565 -1.7867 0
M  V30 41 Pd 1.9051 -6.7177 -1.0715 0
M  V30 42 Pb 1.7553 -7.4701 -1.7111 0
M  V30 43 Pb 2.0334 -5.9202 -0.4817 0
M  V30 44 Pb 0.9597 -6.7823 -0.7582 0
M  V30 45 Pb 2.8004 -6.5748 -1.4942 0
M  V30 46 Ag 1.9846 -3.9704 -5.9303 0
M  V30 47 Fe 1.0444 -1.8286 -5.5017 0
M  V30 48 Ag 0.1824 0.3575 -5.1392 0
M  V30 49 Ag 3.4015 2.9874 -0.4215 0
M  V30 50 Fe 3.4480 1.9898 1.7367 0
M  V30 51 Ag 3.3778 1.1960 3.9774 0
M  V30 52 Ag -2.9681 4.8319 0.1912 0
M  V30 53 Fe -3.1338 3.8862 2.3644 0
M  V30 54 Ag -3.0643 3.0533 4.5883 0
M  V30 55 Ag -1.3389 6.3026 0.8560 0
M  V30 56 Fe -1.3211 5.5261 3.0989 0
M  V30 57 Ag -1.4325 4.5272 5.2492 0
M  V30 58 Ag 2.9256 5.0523 0.4480 0
M  V30 59 Fe 2.9183 4.2829 2.6925 0
M  V30 60 Ag 2.8924 3.2666 4.8363 0
M  V30 61 Ag 0.2114 -5.5561 -6.1359 0
M  V30 62 Fe -1.7685 -4.6015 -5.2462 0
M  V30 63 Ag -3.5613 -3.5524 -4.1023 0
M  V30 64 Ag -2.0526 -1.4016 3.1726 0
M  V30 65 Fe -3.0662 -1.5990 1.0335 0
M  V30 66 Ag -4.0504 -1.8245 -1.1165 0
M  V30 67 Ag -3.5252 -4.0844 -1.7074 0
M  V30 68 Fe -1.7299 -5.5006 -1.0712 0
M  V30 69 Ag 0.2296 -6.7533 -0.5982 0
M  V30 70 Ag 0.3649 -2.2784 3.1626 0
M  V30 71 Fe 1.2176 -3.8013 1.5509 0
M  V30 72 Ag 2.1038 -5.3003 -0.0652 0
M  V30 73 Ba -1.8957 -1.1916 5.6036 0
M  V30 74 Ga -2.2633 0.1490 6.0958 0
M  V30 75 Ba -2.5972 1.5111 6.5515 0
M  V30 76 Ba -2.3829 0.9439 -4.6626 0
M  V30 77 Ga -3.2119 -0.1575 -4.1299 0
M  V30 78 Ba -4.1001 -1.2319 -3.6391 0
M  V30 79 Ba 2.7451 3.8400 -2.8253 0
M  V30 80 Ga 1.7314 3.1547 -3.6532 0
M  V30 81 Ba 0.7694 2.4748 -4.5446 0
M  V30 82 Ba 3.3879 -5.7791 -4.7710 0
M  V30 83 Ga 3.4952 -6.1056 -3.3351 0
M  V30 84 Ba 3.4181 -6.4438 -1.9000 0
M  V30 85 Ba 1.6487 -7.3422 -5.1182 0
M  V30 86 Ga 1.6361 -7.7556 -3.7054 0
M  V30 87 Ba 1.6545 -7.9792 -2.2505 0
M  V30 88 Ba -0.6304 6.7679 -1.5235 0
M  V30 89 Ga 0.7900 6.4193 -1.6880 0
M  V30 90 Ba 2.1839 5.9578 -1.7885 0
M  V30 91 Ba 0.4947 -1.9180 5.5083 0
M  V30 92 Ga 1.5615 -0.9622 5.8575 0
M  V30 93 Ba 2.5934 0.0489 6.1519 0
M  V30 94 Ba 2.0152 2.2872 6.9991 0
M  V30 95 Ga 0.6111 2.7020 7.1755 0
M  V30 96 Ba -0.8088 3.0932 7.2514 0
M  V30 97 Ba -2.4082 5.2637 -2.3047 0
M  V30 98 Ga -2.0488 4.1735 -3.2342 0
M  V30 99 Ba -1.7562 3.1186 -4.2257 0
M  V30 END ATOM
M  V30 BEGIN BOND
M  V30 1 1 1 2
M  V30 2 1 1 3
M  V30 3 1 1 4
M  V30 4 1 1 5
M  V30 5 1 6 7
M  V30 6 1 6 8
M  V30 7 1 6 9
M  V30 8 1 6 10
M  V30 9 1 11 12
M  V30 10 1 11 13
M  V30 11 1 11 14
M  V30 12 1 11 15
M  V30 13 1 16 17
M  V30 14 1 16 18
M  V30 15 1 16 19
M  V30 16 1 16 20
M  V30 17 1 21 22
M  V30 18 1 21 23
M  V30 19 1 21 24
M  V30 20 1 21 25
M  V30 21 1 26 27
M  V30 22 1 26 28
M  V30 23 1 26 29
M  V30 24 1 26 30
M  V30 25 1 31 32
M  V30 26 1 31 33
M  V30 27 1 31 34
M  V30 28 1 31 35
M  V30 29 1 36 37
M  V30 30 1 36 38
M  V30 31 1 36 39
M  V30 32 1 36 40
M  V30 33 1 41 42
M  V30 34 1 41 43
M  V30 35 1 41 44
M  V30 36 1 41 45
M  V30 37 1 46 47
M  V30 38 1 47 48
M  V30 39 1 49 50
M  V30 40 1 50 51
M  V30 41 1 52 53
M  V30 42 1 53 54
M  V30 43 1 55 56
M  V30 44 1 56 57
M  V30 45 1 58 59
M  V30 46 1 59 60
M  V30 47 1 61 62
M  V30 48 1 62 63
M  V30 49 1 64 65
M  V30 50 1 65 66
M  V30 51 1 67 68
M  V30 52 1 68 69
M  V30 53 1 70 71
M  V30 54 1 71 72
M  V30 55 1 73 74
M  V30 56 1 74 75
M  V30 57 1 76 77
M  V30 58 1 77 78
M  V30 59 1 79 80
M  V30 60 1 80 81
M  V30 61 1 82 83
M  V30 62 1 83 84
M  V30 63 1 85 86
M  V30 64 1 86 87
M  V30 65 1 88 89
M  V30 66 1 89 90
M  V30 67 1 91 92
M  V30 68 1 92 93
M  V30 69 1 94 95
M  V30 70 1 95 96
M  V30 71 1 97 98
M  V30 72 1 98 99
M  V30 73 1 2 73
M  V30 74 1 3 70
M  V30 75 1 4 91
M  V30 76 1 5 64
M  V30 77 1 7 46
M  V30 78 1 8 85
M  V30 79 1 9 61
M  V30 80 1 10 82
M  V30 81 1 12 55
M  V30 82 1 13 97
M  V30 83 1 14 88
M  V30 84 1 15 52
M  V30 85 1 17 90
M  V30 86 1 18 49
M  V30 87 1 19 79
M  V30 88 1 20 58
M  V30 89 1 22 48
M  V30 90 1 23 99
M  V30 91 1 24 81
M  V30 92 1 25 76
M  V30 93 1 27 51
M  V30 94 1 28 94
M  V30 95 1 29 93
M  V30 96 1 30 60
M  V30 97 1 32 75
M  V30 98 1 33 96
M  V30 99 1 34 54
M  V30 100 1 35 57
M  V30 101 1 37 78
M  V30 102 1 38 67
M  V30 103 1 39 63
M  V30 104 1 40 66
M  V30 105 1 42 87
M  V30 106 1 43 72
M  V30 107 1 44 69
M  V30 108 1 45 84
M  V30 END BOND
M  V30 END CTAB
M  END

$$$$
