
     RDKit          3D

  0  0  0  0  0  0  0  0  0  0999 V3000
M  V30 BEGIN CTAB
M  V30 COUNTS 99 108 0 0 0
M  V30 BEGIN ATOM
M  V30 1 Pd 3.7611 1.3955 1.9819 0
M  V30 2 Pb 3.1618 1.8043 2.6696 0
M  V30 3 Pb 4.3362 2.2122 2.0067 0
M  V30 4 Pb 3.1544 0.6010 1.9870 0
M  V30 5 Pb 4.3477 0.9809 1.2833 0
M  V30 6 Pd 0.5993 -5.9572 1.1305 0
M  V30 7 Pb 0.9016 -5.7769 0.1907 0
M  V30 8 Pb 0.4036 -6.8957 0.8552 0
M  V30 9 Pb 0.7264 -4.9996 1.3867 0
M  V30 10 Pb 0.2414 -6.1546 2.0452 0
M  V30 11 Pd -2.3519 -6.5287 -2.4644 0
M  V30 12 Pb -2.6951 -5.6941 -2.8940 0
M  V30 13 Pb -1.9897 -7.3409 -2.0107 0
M  V30 14 Pb -3.2153 -6.6493 -1.9807 0
M  V30 15 Pb -1.4237 -6.3131 -2.7621 0
M  V30 16 Pd -3.2161 0.9033 4.7826 0
M  V30 17 Pb -4.0427 0.3596 4.6303 0
M  V30 18 Pb -3.5762 1.6485 4.2205 0
M  V30 19 Pb -2.8512 0.1608 5.3430 0
M  V30 20 Pb -2.3638 1.4125 4.8970 0
M  V30 21 Pd -0.8031 0.5743 -5.1590 0
M  V30 22 Pb -0.0411 -0.0704 -5.0923 0
M  V30 23 Pb -1.5309 1.2562 -5.1131 0
M  V30 24 Pb -1.4582 -0.1525 -4.9525 0
M  V30 25 Pb -0.1527 1.2955 -5.3931 0
M  V30 26 Pd -3.6591 -4.2714 4.2269 0
M  V30 27 Pb -3.1904 -3.7451 4.9348 0
M  V30 28 Pb -4.3638 -3.5604 4.1890 0
M  V30 29 Pb -4.1250 -4.7827 3.5030 0
M  V30 30 Pb -2.9314 -4.9598 4.2708 0
M  V30 31 Pd 3.3897 6.1309 -0.4395 0
M  V30 32 Pb 2.7925 6.4792 -1.1609 0
M  V30 33 Pb 4.0466 5.8012 -1.1170 0
M  V30 34 Pb 2.7215 6.4452 0.2379 0
M  V30 35 Pb 3.9932 5.7765 0.2740 0
M  V30 36 Pd 4.0578 1.5545 -3.4558 0
M  V30 37 Pb 4.5398 2.4104 -3.2626 0
M  V30 38 Pb 3.5185 2.0263 -4.1505 0
M  V30 39 Pb 4.5760 1.0889 -2.7365 0
M  V30 40 Pb 3.5937 0.6996 -3.7006 0
M  V30 41 Pd -1.8021 6.1591 -0.6856 0
M  V30 42 Pb -2.4548 5.7750 -0.0316 0
M  V30 43 Pb -1.2258 6.4968 0.0598 0
M  V30 44 Pb -1.1374 6.5197 -1.3385 0
M  V30 45 Pb -2.3250 5.7709 -1.4436 0
M  V30 46 Ag -3.8271 2.2174 3.8004 0
M  V30 47 Fe -3.4030 3.8509 2.1285 0
M  V30 48 Ag -2.9398 5.4703 0.4534 0
M  V30 49 Ag -2.9386 -5.0561 -3.2029 0
M  V30 50 Fe -2.4545 -2.8762 -4.0107 0
M  V30 51 Ag -1.9536 -0.6984 -4.8142 0
M  V30 52 Ag -2.0300 1.8010 -4.9944 0
M  V30 53 Fe -2.4738 3.6532 -3.5786 0
M  V30 54 Ag -2.6606 5.4368 -2.0240 0
M  V30 55 Ag 2.6837 2.0828 3.1751 0
M  V30 56 Fe 0.5029 1.9809 4.1081 0
M  V30 57 Ag -1.7081 1.7717 4.9477 0
M  V30 58 Ag 2.6503 0.0490 2.0441 0
M  V30 59 Fe 1.7984 -2.1497 1.7651 0
M  V30 60 Ag 0.7622 -4.2789 1.5886 0
M  V30 61 Ag -3.7837 -6.6752 -1.4963 0
M  V30 62 Fe -4.2650 -5.9705 0.7189 0
M  V30 63 Ag -4.4578 -5.1500 2.9386 0
M  V30 64 Ba 2.3242 6.7399 -1.6842 0
M  V30 65 Ga 0.8540 6.7722 -1.7785 0
M  V30 66 Ba -0.6191 6.7748 -1.8153 0
M  V30 67 Ba -4.6378 -0.0819 4.5075 0
M  V30 68 Ga -4.7811 -1.5421 4.3374 0
M  V30 69 Ba -4.8726 -3.0073 4.1737 0
M  V30 70 Ba 4.7371 2.8439 2.0474 0
M  V30 71 Ga 4.6134 4.1723 1.4205 0
M  V30 72 Ba 4.4675 5.4919 0.7798 0
M  V30 73 Ba 4.7882 0.6686 0.7599 0
M  V30 74 Ga 4.8700 0.7095 -0.7147 0
M  V30 75 Ba 4.9588 0.7447 -2.1890 0
M  V30 76 Ba -2.5891 -0.4087 5.7532 0
M  V30 77 Ga -2.7004 -1.8725 5.6263 0
M  V30 78 Ba -2.8434 -3.3286 5.4514 0
M  V30 79 Ba -0.0478 -6.3228 2.7186 0
M  V30 80 Ga -1.2136 -5.8802 3.5125 0
M  V30 81 Ba -2.3710 -5.4589 4.3297 0
M  V30 82 Ba 4.5520 5.5406 -1.6055 0
M  V30 83 Ga 4.7180 4.2930 -2.3758 0
M  V30 84 Ba 4.9090 3.0558 -3.1567 0
M  V30 85 Ba 0.1981 -7.5652 0.5953 0
M  V30 86 Ga -0.7309 -7.8357 -0.5119 0
M  V30 87 Ba -1.6760 -7.9073 -1.6361 0
M  V30 88 Ba 1.0777 -5.6871 -0.5365 0
M  V30 89 Ga 0.2540 -5.8828 -1.7474 0
M  V30 90 Ba -0.7050 -6.1197 -2.8456 0
M  V30 91 Ba 2.1984 6.6816 0.7241 0
M  V30 92 Ga 0.7219 6.7170 0.6862 0
M  V30 93 Ba -0.7527 6.7281 0.5953 0
M  V30 94 Ba 0.3448 1.8251 -5.5742 0
M  V30 95 Ga 1.7185 2.1192 -5.1323 0
M  V30 96 Ba 3.0893 2.3711 -4.6569 0
M  V30 97 Ba 0.5527 -0.5169 -4.9850 0
M  V30 98 Ga 1.9064 -0.2461 -4.4575 0
M  V30 99 Ba 3.2486 0.0687 -3.9247 0
M  V30 END ATOM
M  V30 BEGIN BOND
M  V30 1 1 1 2
M  V30 2 1 1 3
M  V30 3 1 1 4
M  V30 4 1 1 5
M  V30 5 1 6 7
M  V30 6 1 6 8
M  V30 7 1 6 9
M  V30 8 1 6 10
M  V30 9 1 11 12
M  V30 10 1 11 13
M  V30 11 1 11 14
M  V30 12 1 11 15
M  V30 13 1 16 17
M  V30 14 1 16 18
M  V30 15 1 16 19
M  V30 16 1 16 20
M  V30 17 1 21 22
M  V30 18 1 21 23
M  V30 19 1 21 24
M  V30 20 1 21 25
M  V30 21 1 26 27
M  V30 22 1 26 28
M  V30 23 1 26 29
M  V30 24 1 26 30
M  V30 25 1 31 32
M  V30 26 1 31 33
M  V30 27 1 31 34
M  V30 28 1 31 35
M  V30 29 1 36 37
M  V30 30 1 36 38
M  V30 31 1 36 39
M  V30 32 1 36 40
M  V30 33 1 41 42
M  V30 34 1 41 43
M  V30 35 1 41 44
M  V30 36 1 41 45
M  V30 37 1 46 47
M  V30 38 1 47 48
M  V30 39 1 49 50
M  V30 40 1 50 51
M  V30 41 1 52 53
M  V30 42 1 53 54
M  V30 43 1 55 56
M  V30 44 1 56 57
M  V30 45 1 58 59
M  V30 46 1 59 60
M  V30 47 1 61 62
M  V30 48 1 62 63
M  V30 49 1 64 65
M  V30 50 1 65 66
M  V30 51 1 67 68
M  V30 52 1 68 69
M  V30 53 1 70 71
M  V30 54 1 71 72
M  V30 55 1 73 74
M  V30 56 1 74 75
M  V30 57 1 76 77
M  V30 58 1 77 78
M  V30 59 1 79 80
M  V30 60 1 80 81
M  V30 61 1 82 83
M  V30 62 1 83 84
M  V30 63 1 85 86
M  V30 64 1 86 87
M  V30 65 1 88 89
M  V30 66 1 89 90
M  V30 67 1 91 92
M  V30 68 1 92 93
M  V30 69 1 94 95
M  V30 70 1 95 96
M  V30 71 1 97 98
M  V30 72 1 98 99
M  V30 73 1 2 55
M  V30 74 1 3 70
M  V30 75 1 4 58
M  V30 76 1 5 73
M  V30 77 1 7 88
M  V30 78 1 8 85
M  V30 79 1 9 60
M  V30 80 1 10 79
M  V30 81 1 12 49
M  V30 82 1 13 87
M  V30 83 1 14 61
M  V30 84 1 15 90
M  V30 85 1 17 67
M  V30 86 1 18 46
M  V30 87 1 19 76
M  V30 88 1 20 57
M  V30 89 1 22 97
M  V30 90 1 23 52
M  V30 91 1 24 51
M  V30 92 1 25 94
M  V30 93 1 27 78
M  V30 94 1 28 69
M  V30 95 1 29 63
M  V30 96 1 30 81
M  V30 97 1 32 64
M  V30 98 1 33 82
M  V30 99 1 34 91
M  V30 100 1 35 72
M  V30 101 1 37 84
M  V30 102 1 38 96
M  V30 103 1 39 75
M  V30 104 1 40 99
M  V30 105 1 42 48
M  V30 106 1 43 93
M  V30 107 1 44 66
M  V30 108 1 45 54
M  V30 END BOND
M  V30 END CTAB
M  END

$$$$
