
     RDKit          3D

  0  0  0  0  0  0  0  0  0  0999 V3000
M  V30 BEGIN CTAB
M  V30 COUNTS 99 108 0 0 0
M  V30 BEGIN ATOM
M  V30 1 Pd -1.9585 -2.4539 -2.2245 0
M  V30 2 Pb -2.6603 -3.1653 -2.1413 0
M  V30 3 Pb -1.3134 -1.6994 -2.3432 0
M  V30 4 Pb -1.6466 -2.8054 -3.1087 0
M  V30 5 Pb -2.2186 -2.1115 -1.3194 0
M  V30 6 Pd -0.5292 8.4766 -1.7121 0
M  V30 7 Pb 0.1347 8.2180 -1.0117 0
M  V30 8 Pb 0.1233 8.2804 -2.4453 0
M  V30 9 Pb -1.2107 8.5581 -0.9880 0
M  V30 10 Pb -1.2233 8.6373 -2.4112 0
M  V30 11 Pd 1.3406 -2.6626 4.4735 0
M  V30 12 Pb 1.0143 -3.5596 4.1058 0
M  V30 13 Pb 1.6305 -1.7901 4.8658 0
M  V30 14 Pb 2.3029 -2.8854 4.2954 0
M  V30 15 Pb 0.4054 -2.4219 4.6985 0
M  V30 16 Pd 5.0482 -3.0507 0.3378 0
M  V30 17 Pb 5.0878 -3.0746 1.3370 0
M  V30 18 Pb 5.3314 -4.0016 0.3246 0
M  V30 19 Pb 4.8509 -2.0716 0.3674 0
M  V30 20 Pb 4.9192 -3.0763 -0.6753 0
M  V30 21 Pd 1.5696 3.0804 3.5899 0
M  V30 22 Pb 1.5481 3.9305 3.0592 0
M  V30 23 Pb 1.7039 2.2927 4.1941 0
M  V30 24 Pb 2.2665 2.7319 2.9652 0
M  V30 25 Pb 0.8067 3.3801 4.1649 0
M  V30 26 Pd 2.1778 -5.6987 -3.9694 0
M  V30 27 Pb 2.8382 -6.3527 -3.6217 0
M  V30 28 Pb 1.4875 -6.4066 -3.8666 0
M  V30 29 Pb 1.4830 -5.0792 -4.3441 0
M  V30 30 Pb 2.8601 -4.9540 -3.8473 0
M  V30 31 Pd -2.6388 -5.9160 1.3179 0
M  V30 32 Pb -3.3474 -5.7922 0.6289 0
M  V30 33 Pb -2.2007 -6.5251 0.6600 0
M  V30 34 Pb -3.1223 -5.3145 1.9407 0
M  V30 35 Pb -1.8333 -5.9210 1.9440 0
M  V30 36 Pd -3.5438 3.4109 2.4422 0
M  V30 37 Pb -3.0678 3.5144 3.3175 0
M  V30 38 Pb -3.9532 3.3255 1.5337 0
M  V30 39 Pb -3.6217 4.4047 2.3775 0
M  V30 40 Pb -3.4350 2.4172 2.4515 0
M  V30 41 Pd -1.4983 4.8286 -4.3995 0
M  V30 42 Pb -0.6612 5.3174 -4.6445 0
M  V30 43 Pb -0.9780 4.0077 -4.1620 0
M  V30 44 Pb -2.3194 4.4002 -4.0254 0
M  V30 45 Pb -2.0069 5.6711 -4.5733 0
M  V30 46 Ag 0.5889 7.9798 -0.4653 0
M  V30 47 Fe 1.0831 6.2650 1.1040 0
M  V30 48 Ag 1.6248 4.5846 2.6947 0
M  V30 49 Ag 4.7560 -1.3298 0.4168 0
M  V30 50 Fe 3.7537 0.5653 1.4368 0
M  V30 51 Ag 2.7462 2.4551 2.4612 0
M  V30 52 Ag 5.4913 -4.7121 0.2028 0
M  V30 53 Fe 4.6998 -6.2105 -1.4251 0
M  V30 54 Ag 3.3395 -6.7574 -3.2613 0
M  V30 55 Ag -0.3196 -2.3247 4.8004 0
M  V30 56 Fe -2.2183 -3.3387 3.8523 0
M  V30 57 Ag -3.3662 -4.8213 2.4328 0
M  V30 58 Ag -1.7087 8.5140 -0.4323 0
M  V30 59 Fe -2.7585 6.9374 0.9963 0
M  V30 60 Ag -3.6419 5.1464 2.2774 0
M  V30 61 Ag -2.3955 -1.8717 -0.6288 0
M  V30 62 Fe -2.8786 -0.1214 0.9041 0
M  V30 63 Ag -3.3551 1.6745 2.3853 0
M  V30 64 Ag -4.2010 3.2651 0.8283 0
M  V30 65 Fe -3.6685 3.6385 -1.4552 0
M  V30 66 Ag -2.9004 4.1121 -3.6512 0
M  V30 67 Ag -0.8596 -1.1191 -2.4840 0
M  V30 68 Fe -0.6835 1.1365 -3.2072 0
M  V30 69 Ag -0.6062 3.3945 -3.9404 0
M  V30 70 Ag 0.9847 -6.8948 -3.6165 0
M  V30 71 Fe -0.5331 -7.0723 -1.8048 0
M  V30 72 Ag -1.9422 -6.9454 0.0974 0
M  V30 73 Ba -3.2173 -3.6650 -2.0585 0
M  V30 74 Ga -3.5512 -4.6709 -1.0328 0
M  V30 75 Ba -3.7891 -5.6494 0.0444 0
M  V30 76 Ba 0.2053 3.5568 4.5795 0
M  V30 77 Ga -1.2423 3.5995 4.2868 0
M  V30 78 Ba -2.6812 3.6302 3.9520 0
M  V30 79 Ba -1.7320 8.6615 -2.9589 0
M  V30 80 Ga -2.1078 7.5551 -3.8544 0
M  V30 81 Ba -2.3434 6.3364 -4.6459 0
M  V30 82 Ba 0.5537 8.0607 -3.0200 0
M  V30 83 Ga 0.3305 6.9227 -3.9327 0
M  V30 84 Ba -0.0561 5.7499 -4.7406 0
M  V30 85 Ba 0.7857 -4.2631 3.8845 0
M  V30 86 Ga -0.2533 -5.0203 3.1112 0
M  V30 87 Ba -1.2033 -5.9281 2.3870 0
M  V30 88 Ba 4.8287 -3.0825 -1.4413 0
M  V30 89 Ga 4.0743 -3.7778 -2.5356 0
M  V30 90 Ba 3.3760 -4.4018 -3.7075 0
M  V30 91 Ba 3.0414 -3.0129 4.2148 0
M  V30 92 Ga 4.0486 -3.0682 3.1346 0
M  V30 93 Ba 5.0874 -3.1333 2.0852 0
M  V30 94 Ba -1.3664 -3.0315 -3.7685 0
M  V30 95 Ga -0.2124 -3.8526 -4.1934 0
M  V30 96 Ba 0.9333 -4.6665 -4.6531 0
M  V30 97 Ba 1.8311 -1.1478 5.1959 0
M  V30 98 Ga 1.8229 0.2964 4.8905 0
M  V30 99 Ba 1.8634 1.7594 4.6998 0
M  V30 END ATOM
M  V30 BEGIN BOND
M  V30 1 1 1 2
M  V30 2 1 1 3
M  V30 3 1 1 4
M  V30 4 1 1 5
M  V30 5 1 6 7
M  V30 6 1 6 8
M  V30 7 1 6 9
M  V30 8 1 6 10
M  V30 9 1 11 12
M  V30 10 1 11 13
M  V30 11 1 11 14
M  V30 12 1 11 15
M  V30 13 1 16 17
M  V30 14 1 16 18
M  V30 15 1 16 19
M  V30 16 1 16 20
M  V30 17 1 21 22
M  V30 18 1 21 23
M  V30 19 1 21 24
M  V30 20 1 21 25
M  V30 21 1 26 27
M  V30 22 1 26 28
M  V30 23 1 26 29
M  V30 24 1 26 30
M  V30 25 1 31 32
M  V30 26 1 31 33
M  V30 27 1 31 34
M  V30 28 1 31 35
M  V30 29 1 36 37
M  V30 30 1 36 38
M  V30 31 1 36 39
M  V30 32 1 36 40
M  V30 33 1 41 42
M  V30 34 1 41 43
M  V30 35 1 41 44
M  V30 36 1 41 45
M  V30 37 1 46 47
M  V30 38 1 47 48
M  V30 39 1 49 50
M  V30 40 1 50 51
M  V30 41 1 52 53
M  V30 42 1 53 54
M  V30 43 1 55 56
M  V30 44 1 56 57
M  V30 45 1 58 59
M  V30 46 1 59 60
M  V30 47 1 61 62
M  V30 48 1 62 63
M  V30 49 1 64 65
M  V30 50 1 65 66
M  V30 51 1 67 68
M  V30 52 1 68 69
M  V30 53 1 70 71
M  V30 54 1 71 72
M  V30 55 1 73 74
M  V30 56 1 74 75
M  V30 57 1 76 77
M  V30 58 1 77 78
M  V30 59 1 79 80
M  V30 60 1 80 81
M  V30 61 1 82 83
M  V30 62 1 83 84
M  V30 63 1 85 86
M  V30 64 1 86 87
M  V30 65 1 88 89
M  V30 66 1 89 90
M  V30 67 1 91 92
M  V30 68 1 92 93
M  V30 69 1 94 95
M  V30 70 1 95 96
M  V30 71 1 97 98
M  V30 72 1 98 99
M  V30 73 1 2 73
M  V30 74 1 3 67
M  V30 75 1 4 94
M  V30 76 1 5 61
M  V30 77 1 7 46
M  V30 78 1 8 82
M  V30 79 1 9 58
M  V30 80 1 10 79
M  V30 81 1 12 85
M  V30 82 1 13 97
M  V30 83 1 14 91
M  V30 84 1 15 55
M  V30 85 1 17 93
M  V30 86 1 18 52
M  V30 87 1 19 49
M  V30 88 1 20 88
M  V30 89 1 22 48
M  V30 90 1 23 99
M  V30 91 1 24 51
M  V30 92 1 25 76
M  V30 93 1 27 54
M  V30 94 1 28 70
M  V30 95 1 29 96
M  V30 96 1 30 90
M  V30 97 1 32 75
M  V30 98 1 33 72
M  V30 99 1 34 57
M  V30 100 1 35 87
M  V30 101 1 37 78
M  V30 102 1 38 64
M  V30 103 1 39 60
M  V30 104 1 40 63
M  V30 105 1 42 84
M  V30 106 1 43 69
M  V30 107 1 44 66
M  V30 108 1 45 81
M  V30 END BOND
M  V30 END CTAB
M  END

$$$$
