
     RDKit          3D

  0  0  0  0  0  0  0  0  0  0999 V3000
M  V30 BEGIN CTAB
M  V30 COUNTS 99 108 0 0 0
M  V30 BEGIN ATOM
M  V30 1 Pd 5.3029 4.0496 4.2607 0
M  V30 2 Pb 5.2685 3.6770 3.3342 0
M  V30 3 Pb 6.2437 3.7088 4.3397 0
M  V30 4 Pb 5.3453 4.4489 5.1822 0
M  V30 5 Pb 4.3043 3.9658 4.3189 0
M  V30 6 Pd -0.3720 -2.3590 -4.8843 0
M  V30 7 Pb -1.1831 -1.8061 -5.0751 0
M  V30 8 Pb -0.7778 -2.7344 -4.0520 0
M  V30 9 Pb 0.0469 -1.9090 -5.6739 0
M  V30 10 Pb 0.4626 -2.8753 -4.6903 0
M  V30 11 Pd 4.7556 0.0239 5.2276 0
M  V30 12 Pb 3.8161 0.3747 5.1852 0
M  V30 13 Pb 4.7314 -0.1323 4.2394 0
M  V30 14 Pb 4.7684 0.1285 6.2269 0
M  V30 15 Pb 5.7547 0.1136 5.1889 0
M  V30 16 Pd -2.9344 -5.2260 1.7548 0
M  V30 17 Pb -3.4034 -4.6563 2.4353 0
M  V30 18 Pb -2.0714 -5.0426 2.2244 0
M  V30 19 Pb -2.4311 -5.7542 1.0705 0
M  V30 20 Pb -3.7737 -5.3921 1.2317 0
M  V30 21 Pd -4.6899 1.4150 2.1242 0
M  V30 22 Pb -3.7090 1.5442 2.2773 0
M  V30 23 Pb -4.5860 1.5636 1.1295 0
M  V30 24 Pb -4.7691 0.9351 2.9934 0
M  V30 25 Pb -5.6754 1.3531 1.9970 0
M  V30 26 Pd -5.1492 -2.3080 -1.7920 0
M  V30 27 Pb -5.4022 -3.2605 -1.6278 0
M  V30 28 Pb -4.1917 -2.5964 -1.7975 0
M  V30 29 Pb -6.1115 -2.0536 -1.7560 0
M  V30 30 Pb -4.8988 -1.3214 -1.7748 0
M  V30 31 Pd 1.7551 -4.2973 -0.3273 0
M  V30 32 Pb 1.1100 -5.0369 -0.5212 0
M  V30 33 Pb 1.4648 -4.3192 0.6299 0
M  V30 34 Pb 2.0387 -4.2844 -1.2878 0
M  V30 35 Pb 2.3857 -3.5493 -0.1160 0
M  V30 36 Pd 1.9963 4.5017 -0.1292 0
M  V30 37 Pb 1.5231 4.0369 0.6191 0
M  V30 38 Pb 1.1437 4.9268 -0.4314 0
M  V30 39 Pb 2.8512 4.0478 0.1226 0
M  V30 40 Pb 2.4160 4.9024 -0.9448 0
M  V30 41 Pd -0.6745 4.3721 -6.4653 0
M  V30 42 Pb 0.1831 4.8467 -6.2702 0
M  V30 43 Pb -1.0883 4.9213 -5.7424 0
M  V30 44 Pb -0.2148 3.7051 -7.0502 0
M  V30 45 Pb -1.4799 3.7843 -6.5075 0
M  V30 46 Ag -2.9838 1.6793 2.4195 0
M  V30 47 Fe -0.9091 2.6573 1.8000 0
M  V30 48 Ag 1.1459 3.6499 1.1395 0
M  V30 49 Ag -6.3753 1.2347 1.7840 0
M  V30 50 Fe -7.2009 -0.1825 0.0990 0
M  V30 51 Ag -6.7730 -1.7733 -1.5781 0
M  V30 52 Ag 0.5407 5.2304 -0.7561 0
M  V30 53 Fe -0.5459 5.3771 -2.8603 0
M  V30 54 Ag -1.2975 5.2552 -5.1072 0
M  V30 55 Ag 2.6272 5.1725 -1.6127 0
M  V30 56 Fe 1.8884 5.2726 -3.8680 0
M  V30 57 Ag 0.8072 5.1426 -5.9788 0
M  V30 58 Ag 5.3518 4.5417 5.9223 0
M  V30 59 Fe 5.0995 2.6849 7.3319 0
M  V30 60 Ag 4.8008 0.3948 6.9232 0
M  V30 61 Ag -1.7259 -1.3249 -5.2646 0
M  V30 62 Fe -2.0709 0.9383 -5.8909 0
M  V30 63 Ag -1.9914 3.2406 -6.4614 0
M  V30 64 Ag -3.6932 -4.1838 2.9462 0
M  V30 65 Fe -4.3017 -1.9362 3.4226 0
M  V30 66 Ag -4.8013 0.3853 3.4983 0
M  V30 67 Ag 0.3066 -1.4791 -6.2317 0
M  V30 68 Fe 0.3144 0.7756 -6.9780 0
M  V30 69 Ag 0.0961 3.1065 -7.3763 0
M  V30 70 Ag 4.6995 -0.2798 3.5040 0
M  V30 71 Fe 3.7936 -1.6119 1.7575 0
M  V30 72 Ag 2.8462 -2.9844 0.0652 0
M  V30 73 Ba 3.6029 3.6928 4.4113 0
M  V30 74 Ga 3.2874 2.2768 4.7584 0
M  V30 75 Ba 3.2134 0.8276 5.1035 0
M  V30 76 Ba -2.0333 -6.1241 0.5529 0
M  V30 77 Ga -0.7138 -5.8777 -0.0598 0
M  V30 78 Ba 0.6109 -5.5846 -0.6400 0
M  V30 79 Ba 5.2534 3.4056 2.6361 0
M  V30 80 Ga 4.3622 3.5540 1.4708 0
M  V30 81 Ba 3.4866 3.6867 0.2919 0
M  V30 82 Ba -1.4085 -4.8936 2.5409 0
M  V30 83 Ga -0.0775 -4.6178 1.9682 0
M  V30 84 Ba 1.2309 -4.3483 1.3425 0
M  V30 85 Ba -1.0393 -2.9945 -3.3998 0
M  V30 86 Ga -2.2854 -2.9115 -2.6154 0
M  V30 87 Ba -3.4951 -2.8738 -1.7728 0
M  V30 88 Ba 6.8470 3.2608 4.4409 0
M  V30 89 Ga 6.7725 1.8103 4.7806 0
M  V30 90 Ba 6.4564 0.3915 5.1152 0
M  V30 91 Ba 1.0887 -3.2537 -4.5228 0
M  V30 92 Ga 1.6712 -3.7707 -3.2685 0
M  V30 93 Ba 2.2472 -4.2846 -2.0099 0
M  V30 94 Ba -4.3628 -5.5274 0.7826 0
M  V30 95 Ga -4.9961 -4.7722 -0.3179 0
M  V30 96 Ba -5.5761 -3.9542 -1.4027 0
M  V30 97 Ba -4.5111 1.5543 0.3692 0
M  V30 98 Ga -4.6259 0.4838 -0.6720 0
M  V30 99 Ba -4.7352 -0.5717 -1.7290 0
M  V30 END ATOM
M  V30 BEGIN BOND
M  V30 1 1 1 2
M  V30 2 1 1 3
M  V30 3 1 1 4
M  V30 4 1 1 5
M  V30 5 1 6 7
M  V30 6 1 6 8
M  V30 7 1 6 9
M  V30 8 1 6 10
M  V30 9 1 11 12
M  V30 10 1 11 13
M  V30 11 1 11 14
M  V30 12 1 11 15
M  V30 13 1 16 17
M  V30 14 1 16 18
M  V30 15 1 16 19
M  V30 16 1 16 20
M  V30 17 1 21 22
M  V30 18 1 21 23
M  V30 19 1 21 24
M  V30 20 1 21 25
M  V30 21 1 26 27
M  V30 22 1 26 28
M  V30 23 1 26 29
M  V30 24 1 26 30
M  V30 25 1 31 32
M  V30 26 1 31 33
M  V30 27 1 31 34
M  V30 28 1 31 35
M  V30 29 1 36 37
M  V30 30 1 36 38
M  V30 31 1 36 39
M  V30 32 1 36 40
M  V30 33 1 41 42
M  V30 34 1 41 43
M  V30 35 1 41 44
M  V30 36 1 41 45
M  V30 37 1 46 47
M  V30 38 1 47 48
M  V30 39 1 49 50
M  V30 40 1 50 51
M  V30 41 1 52 53
M  V30 42 1 53 54
M  V30 43 1 55 56
M  V30 44 1 56 57
M  V30 45 1 58 59
M  V30 46 1 59 60
M  V30 47 1 61 62
M  V30 48 1 62 63
M  V30 49 1 64 65
M  V30 50 1 65 66
M  V30 51 1 67 68
M  V30 52 1 68 69
M  V30 53 1 70 71
M  V30 54 1 71 72
M  V30 55 1 73 74
M  V30 56 1 74 75
M  V30 57 1 76 77
M  V30 58 1 77 78
M  V30 59 1 79 80
M  V30 60 1 80 81
M  V30 61 1 82 83
M  V30 62 1 83 84
M  V30 63 1 85 86
M  V30 64 1 86 87
M  V30 65 1 88 89
M  V30 66 1 89 90
M  V30 67 1 91 92
M  V30 68 1 92 93
M  V30 69 1 94 95
M  V30 70 1 95 96
M  V30 71 1 97 98
M  V30 72 1 98 99
M  V30 73 1 2 79
M  V30 74 1 3 88
M  V30 75 1 4 58
M  V30 76 1 5 73
M  V30 77 1 7 61
M  V30 78 1 8 85
M  V30 79 1 9 67
M  V30 80 1 10 91
M  V30 81 1 12 75
M  V30 82 1 13 70
M  V30 83 1 14 60
M  V30 84 1 15 90
M  V30 85 1 17 64
M  V30 86 1 18 82
M  V30 87 1 19 76
M  V30 88 1 20 94
M  V30 89 1 22 46
M  V30 90 1 23 97
M  V30 91 1 24 66
M  V30 92 1 25 49
M  V30 93 1 27 96
M  V30 94 1 28 87
M  V30 95 1 29 51
M  V30 96 1 30 99
M  V30 97 1 32 78
M  V30 98 1 33 84
M  V30 99 1 34 93
M  V30 100 1 35 72
M  V30 101 1 37 48
M  V30 102 1 38 52
M  V30 103 1 39 81
M  V30 104 1 40 55
M  V30 105 1 42 57
M  V30 106 1 43 54
M  V30 107 1 44 69
M  V30 108 1 45 63
M  V30 END BOND
M  V30 END CTAB
M  END

$$$$
