
     RDKit          3D

  0  0  0  0  0  0  0  0  0  0999 V3000
M  V30 BEGIN CTAB
M  V30 COUNTS 99 108 0 0 0
M  V30 BEGIN ATOM
M  V30 1 Pd -0.1803 -3.3018 3.3520 0
M  V30 2 Pb -0.2206 -3.9261 2.5713 0
M  V30 3 Pb 0.6193 -2.8604 2.9440 0
M  V30 4 Pb -1.0389 -3.6846 3.6902 0
M  V30 5 Pb -0.1578 -2.6936 4.1475 0
M  V30 6 Pd 6.5229 2.0851 -0.1257 0
M  V30 7 Pb 5.5841 2.0738 -0.4796 0
M  V30 8 Pb 7.4420 2.0282 0.2605 0
M  V30 9 Pb 6.3400 2.8716 0.4549 0
M  V30 10 Pb 6.6281 1.1399 -0.4521 0
M  V30 11 Pd -2.9051 1.5211 -6.5245 0
M  V30 12 Pb -2.3389 0.7002 -6.5613 0
M  V30 13 Pb -2.0933 2.1024 -6.5088 0
M  V30 14 Pb -3.4694 2.3379 -6.4035 0
M  V30 15 Pb -3.6939 0.9074 -6.4513 0
M  V30 16 Pd -4.0568 3.7748 -2.0611 0
M  V30 17 Pb -4.2662 4.0968 -2.9857 0
M  V30 18 Pb -3.8626 3.3996 -1.1506 0
M  V30 19 Pb -3.5071 4.5925 -1.8792 0
M  V30 20 Pb -4.5873 2.9481 -2.2329 0
M  V30 21 Pd 1.0950 4.4465 -1.2039 0
M  V30 22 Pb 1.7657 3.7006 -1.1976 0
M  V30 23 Pb 1.1462 4.4633 -2.2011 0
M  V30 24 Pb 0.3709 5.1354 -1.2364 0
M  V30 25 Pb 0.9643 4.3886 -0.2147 0
M  V30 26 Pd -4.9734 -2.7228 1.2675 0
M  V30 27 Pb -4.6113 -1.8333 1.5572 0
M  V30 28 Pb -5.3182 -3.5890 0.9074 0
M  V30 29 Pb -4.6330 -3.1828 2.0907 0
M  V30 30 Pb -5.3067 -2.2629 0.4475 0
M  V30 31 Pd -3.6257 -4.7816 -3.1866 0
M  V30 32 Pb -2.9290 -5.1912 -2.5999 0
M  V30 33 Pb -4.3282 -5.1091 -2.5537 0
M  V30 34 Pb -4.2887 -4.2681 -3.7344 0
M  V30 35 Pb -2.9249 -4.4235 -3.8010 0
M  V30 36 Pd 2.4990 1.1336 5.5016 0
M  V30 37 Pb 1.8663 1.7983 5.1129 0
M  V30 38 Pb 3.1440 0.4393 5.8260 0
M  V30 39 Pb 3.2144 1.7703 5.2132 0
M  V30 40 Pb 1.7499 0.5231 5.7562 0
M  V30 41 Pd 5.6909 -2.1584 2.8917 0
M  V30 42 Pb 6.6556 -2.1040 3.1427 0
M  V30 43 Pb 4.7336 -2.1014 2.6064 0
M  V30 44 Pb 5.4354 -2.1440 3.8592 0
M  V30 45 Pb 5.9601 -2.0506 1.9211 0
M  V30 46 Ag -0.2690 -4.3972 1.9892 0
M  V30 47 Fe -1.2984 -4.9732 -0.0717 0
M  V30 48 Ag -2.4071 -5.4330 -2.1204 0
M  V30 49 Ag 0.8028 4.3391 0.5157 0
M  V30 50 Fe 1.0963 3.3535 2.6546 0
M  V30 51 Ag 1.4599 2.3136 4.7564 0
M  V30 52 Ag -3.7541 3.0489 -0.4921 0
M  V30 53 Fe -4.0107 0.9975 0.6867 0
M  V30 54 Ag -4.3533 -1.1365 1.6826 0
M  V30 55 Ag -4.2205 0.3810 -6.3434 0
M  V30 56 Fe -4.6075 -1.7187 -5.2966 0
M  V30 57 Ag -4.7041 -3.8014 -4.1532 0
M  V30 58 Ag 8.0525 1.8215 0.6320 0
M  V30 59 Fe 8.2867 -0.0104 2.0977 0
M  V30 60 Ag 7.3609 -1.8775 3.1996 0
M  V30 61 Ag -1.9727 0.0499 -6.5161 0
M  V30 62 Fe -2.0719 -2.0745 -5.4653 0
M  V30 63 Ag -2.4501 -4.0906 -4.2738 0
M  V30 64 Ag -4.9563 2.3030 -2.3065 0
M  V30 65 Fe -5.3197 0.1791 -1.3169 0
M  V30 66 Ag -5.5282 -1.8756 -0.1519 0
M  V30 67 Ag 6.1756 3.2978 1.0438 0
M  V30 68 Fe 4.9565 2.9802 3.0543 0
M  V30 69 Ag 3.6628 2.2983 4.9234 0
M  V30 70 Ag -1.4885 2.5336 -6.4173 0
M  V30 71 Fe -0.1000 3.5418 -4.7784 0
M  V30 72 Ag 1.1198 4.4330 -2.9485 0
M  V30 73 Ba 4.8905 1.9638 -0.7519 0
M  V30 74 Ga 3.5814 2.6182 -0.9614 0
M  V30 75 Ba 2.2128 3.0973 -1.2504 0
M  V30 76 Ba -3.0866 5.2012 -1.7447 0
M  V30 77 Ga -1.6479 5.4301 -1.5038 0
M  V30 78 Ba -0.2027 5.6178 -1.2667 0
M  V30 79 Ba 6.6701 0.3948 -0.5843 0
M  V30 80 Ga 6.4206 -0.7807 0.2973 0
M  V30 81 Ba 6.1666 -1.9438 1.1941 0
M  V30 82 Ba -3.8576 2.9641 -6.2619 0
M  V30 83 Ga -4.1658 3.6566 -4.9952 0
M  V30 84 Ba -4.4357 4.2929 -3.6908 0
M  V30 85 Ba -1.7122 -3.9339 3.9048 0
M  V30 86 Ga -3.0549 -3.7496 3.3192 0
M  V30 87 Ba -4.3799 -3.5413 2.7020 0
M  V30 88 Ba -0.1820 -2.2656 4.7649 0
M  V30 89 Ga 0.5202 -1.0988 5.3333 0
M  V30 90 Ba 1.1885 0.0650 5.9468 0
M  V30 91 Ba 3.5892 -0.1247 6.0473 0
M  V30 92 Ga 4.4328 -1.1053 5.3339 0
M  V30 93 Ba 5.2672 -2.0687 4.5872 0
M  V30 94 Ba 1.1604 -2.5060 2.5640 0
M  V30 95 Ga 2.6210 -2.3006 2.5247 0
M  V30 96 Ba 4.0476 -1.9808 2.3265 0
M  V30 97 Ba -5.5648 -4.2149 0.5772 0
M  V30 98 Ga -5.2247 -4.8142 -0.7271 0
M  V30 99 Ba -4.8267 -5.3453 -2.0445 0
M  V30 END ATOM
M  V30 BEGIN BOND
M  V30 1 1 1 2
M  V30 2 1 1 3
M  V30 3 1 1 4
M  V30 4 1 1 5
M  V30 5 1 6 7
M  V30 6 1 6 8
M  V30 7 1 6 9
M  V30 8 1 6 10
M  V30 9 1 11 12
M  V30 10 1 11 13
M  V30 11 1 11 14
M  V30 12 1 11 15
M  V30 13 1 16 17
M  V30 14 1 16 18
M  V30 15 1 16 19
M  V30 16 1 16 20
M  V30 17 1 21 22
M  V30 18 1 21 23
M  V30 19 1 21 24
M  V30 20 1 21 25
M  V30 21 1 26 27
M  V30 22 1 26 28
M  V30 23 1 26 29
M  V30 24 1 26 30
M  V30 25 1 31 32
M  V30 26 1 31 33
M  V30 27 1 31 34
M  V30 28 1 31 35
M  V30 29 1 36 37
M  V30 30 1 36 38
M  V30 31 1 36 39
M  V30 32 1 36 40
M  V30 33 1 41 42
M  V30 34 1 41 43
M  V30 35 1 41 44
M  V30 36 1 41 45
M  V30 37 1 46 47
M  V30 38 1 47 48
M  V30 39 1 49 50
M  V30 40 1 50 51
M  V30 41 1 52 53
M  V30 42 1 53 54
M  V30 43 1 55 56
M  V30 44 1 56 57
M  V30 45 1 58 59
M  V30 46 1 59 60
M  V30 47 1 61 62
M  V30 48 1 62 63
M  V30 49 1 64 65
M  V30 50 1 65 66
M  V30 51 1 67 68
M  V30 52 1 68 69
M  V30 53 1 70 71
M  V30 54 1 71 72
M  V30 55 1 73 74
M  V30 56 1 74 75
M  V30 57 1 76 77
M  V30 58 1 77 78
M  V30 59 1 79 80
M  V30 60 1 80 81
M  V30 61 1 82 83
M  V30 62 1 83 84
M  V30 63 1 85 86
M  V30 64 1 86 87
M  V30 65 1 88 89
M  V30 66 1 89 90
M  V30 67 1 91 92
M  V30 68 1 92 93
M  V30 69 1 94 95
M  V30 70 1 95 96
M  V30 71 1 97 98
M  V30 72 1 98 99
M  V30 73 1 2 46
M  V30 74 1 3 94
M  V30 75 1 4 85
M  V30 76 1 5 88
M  V30 77 1 7 73
M  V30 78 1 8 58
M  V30 79 1 9 67
M  V30 80 1 10 79
M  V30 81 1 12 61
M  V30 82 1 13 70
M  V30 83 1 14 82
M  V30 84 1 15 55
M  V30 85 1 17 84
M  V30 86 1 18 52
M  V30 87 1 19 76
M  V30 88 1 20 64
M  V30 89 1 22 75
M  V30 90 1 23 72
M  V30 91 1 24 78
M  V30 92 1 25 49
M  V30 93 1 27 54
M  V30 94 1 28 97
M  V30 95 1 29 87
M  V30 96 1 30 66
M  V30 97 1 32 48
M  V30 98 1 33 99
M  V30 99 1 34 57
M  V30 100 1 35 63
M  V30 101 1 37 51
M  V30 102 1 38 91
M  V30 103 1 39 69
M  V30 104 1 40 90
M  V30 105 1 42 60
M  V30 106 1 43 96
M  V30 107 1 44 93
M  V30 108 1 45 81
M  V30 END BOND
M  V30 END CTAB
M  END

$$$$
