
     RDKit          3D

  0  0  0  0  0  0  0  0  0  0999 V3000
M  V30 BEGIN CTAB
M  V30 COUNTS 99 108 0 0 0
M  V30 BEGIN ATOM
M  V30 1 Pd 10.0395 0.8632 -0.6587 0
M  V30 2 Pb 9.8534 0.6671 -1.6173 0
M  V30 3 Pb 10.2054 -0.1056 -0.4661 0
M  V30 4 Pb 9.7228 1.7971 -0.8380 0
M  V30 5 Pb 10.0340 1.0303 0.3230 0
M  V30 6 Pd -6.4048 -4.2888 3.6953 0
M  V30 7 Pb -6.9272 -4.8600 3.0705 0
M  V30 8 Pb -7.1676 -3.6182 3.7026 0
M  V30 9 Pb -5.8713 -3.7039 4.3021 0
M  V30 10 Pb -5.6142 -4.8971 3.6123 0
M  V30 11 Pd 0.2720 3.8423 -0.2002 0
M  V30 12 Pb -0.6756 4.1660 -0.1601 0
M  V30 13 Pb 0.1371 3.3551 0.6568 0
M  V30 14 Pb 0.4540 4.3073 -1.0664 0
M  V30 15 Pb 1.2241 3.5505 -0.1811 0
M  V30 16 Pd -1.4828 -2.8819 3.1161 0
M  V30 17 Pb -1.8665 -3.8071 3.0947 0
M  V30 18 Pb -0.8278 -3.1171 2.3921 0
M  V30 19 Pb -1.1330 -1.9512 3.1715 0
M  V30 20 Pb -2.1308 -2.6505 3.8402 0
M  V30 21 Pd 4.1431 2.9972 -3.9241 0
M  V30 22 Pb 3.3899 3.6378 -3.7450 0
M  V30 23 Pb 4.8250 3.5833 -3.4835 0
M  V30 24 Pb 3.5067 2.3311 -4.3085 0
M  V30 25 Pb 4.9033 2.3876 -4.1469 0
M  V30 26 Pd 1.4581 -1.4793 -1.9404 0
M  V30 27 Pb 0.5531 -1.0780 -2.0776 0
M  V30 28 Pb 2.3746 -1.8799 -1.8714 0
M  V30 29 Pb 1.7003 -0.9746 -2.7728 0
M  V30 30 Pb 1.1903 -2.0546 -1.1588 0
M  V30 31 Pd -5.3120 2.5739 -1.2050 0
M  V30 32 Pb -4.6590 3.1987 -0.7712 0
M  V30 33 Pb -6.0307 2.8539 -0.5680 0
M  V30 34 Pb -5.9957 2.0411 -1.7035 0
M  V30 35 Pb -4.5925 2.1813 -1.7728 0
M  V30 36 Pd 6.4520 -1.1316 0.8547 0
M  V30 37 Pb 6.9806 -0.6120 1.5283 0
M  V30 38 Pb 5.8360 -0.3548 0.7481 0
M  V30 39 Pb 5.9525 -1.6493 0.1564 0
M  V30 40 Pb 7.1929 -1.8017 0.8392 0
M  V30 41 Pd -9.1629 -0.4392 0.3831 0
M  V30 42 Pb -8.9063 0.4791 0.6948 0
M  V30 43 Pb -9.4236 -1.3411 0.0543 0
M  V30 44 Pb -9.0378 -0.1323 -0.5561 0
M  V30 45 Pb -9.1692 -0.8050 1.3289 0
M  V30 46 Ag 9.3864 2.4490 -1.0055 0
M  V30 47 Fe 7.4419 3.3433 -2.0419 0
M  V30 48 Ag 5.4098 3.9078 -3.1401 0
M  V30 49 Ag -0.0663 -0.7265 -2.3143 0
M  V30 50 Fe -2.0606 0.5538 -2.1735 0
M  V30 51 Ag -4.0697 1.8190 -2.1654 0
M  V30 52 Ag 1.9422 3.3552 -0.1296 0
M  V30 53 Fe 3.6420 1.7456 0.2522 0
M  V30 54 Ag 5.4770 0.2858 0.6074 0
M  V30 55 Ag 0.0750 2.9589 1.2846 0
M  V30 56 Fe -0.4167 0.8682 2.2860 0
M  V30 57 Ag -0.9161 -1.2411 3.2437 0
M  V30 58 Ag -7.3653 -5.1352 2.5409 0
M  V30 59 Fe -8.6759 -3.9921 0.9530 0
M  V30 60 Ag -9.5349 -2.0604 -0.0852 0
M  V30 61 Ag 9.5602 0.5693 -2.2961 0
M  V30 62 Fe 7.5827 1.1845 -3.4521 0
M  V30 63 Ag 5.5108 1.9745 -4.2952 0
M  V30 64 Ba 10.2200 -0.8340 -0.2808 0
M  V30 65 Ga 9.0901 -1.6202 0.2524 0
M  V30 66 Ba 7.8292 -2.1906 0.7654 0
M  V30 67 Ba 3.0684 1.7868 -4.5767 0
M  V30 68 Ga 2.4392 0.5916 -3.9799 0
M  V30 69 Ba 1.7936 -0.6170 -3.4296 0
M  V30 70 Ba -6.5771 2.9845 -0.0700 0
M  V30 71 Ga -7.6587 2.1095 0.4291 0
M  V30 72 Ba -8.7162 1.1827 0.8850 0
M  V30 73 Ba -4.9939 -5.3102 3.5184 0
M  V30 74 Ga -3.5804 -4.9326 3.3133 0
M  V30 75 Ba -2.1861 -4.4874 3.1129 0
M  V30 76 Ba -0.3309 -3.3380 1.8699 0
M  V30 77 Ga 0.3223 -2.8661 0.6268 0
M  V30 78 Ba 1.0688 -2.5690 -0.6175 0
M  V30 79 Ba -5.4395 -3.2708 4.7319 0
M  V30 80 Ga -4.0344 -2.8562 4.5879 0
M  V30 81 Ba -2.6259 -2.4839 4.3767 0
M  V30 82 Ba -1.3732 4.4287 -0.0593 0
M  V30 83 Ga -2.7753 4.0247 -0.2948 0
M  V30 84 Ba -4.2116 3.7274 -0.4769 0
M  V30 85 Ba -6.5390 1.6933 -2.0864 0
M  V30 86 Ga -7.7104 0.8869 -1.7053 0
M  V30 87 Ba -8.8571 0.0857 -1.2463 0
M  V30 88 Ba -7.7377 -3.1075 3.7186 0
M  V30 89 Ga -8.4197 -2.1149 2.8346 0
M  V30 90 Ba -9.1670 -1.0979 2.0350 0
M  V30 91 Ba 0.6470 4.6337 -1.7138 0
M  V30 92 Ga 1.7342 4.3751 -2.6820 0
M  V30 93 Ba 2.8193 4.1236 -3.6546 0
M  V30 94 Ba 9.8826 1.0844 1.0509 0
M  V30 95 Ga 8.6821 0.4732 1.6429 0
M  V30 96 Ba 7.4309 -0.2223 1.9863 0
M  V30 97 Ba 3.0482 -2.2138 -1.8391 0
M  V30 98 Ga 4.3138 -2.0958 -1.0846 0
M  V30 99 Ba 5.6130 -2.0520 -0.3809 0
M  V30 END ATOM
M  V30 BEGIN BOND
M  V30 1 1 1 2
M  V30 2 1 1 3
M  V30 3 1 1 4
M  V30 4 1 1 5
M  V30 5 1 6 7
M  V30 6 1 6 8
M  V30 7 1 6 9
M  V30 8 1 6 10
M  V30 9 1 11 12
M  V30 10 1 11 13
M  V30 11 1 11 14
M  V30 12 1 11 15
M  V30 13 1 16 17
M  V30 14 1 16 18
M  V30 15 1 16 19
M  V30 16 1 16 20
M  V30 17 1 21 22
M  V30 18 1 21 23
M  V30 19 1 21 24
M  V30 20 1 21 25
M  V30 21 1 26 27
M  V30 22 1 26 28
M  V30 23 1 26 29
M  V30 24 1 26 30
M  V30 25 1 31 32
M  V30 26 1 31 33
M  V30 27 1 31 34
M  V30 28 1 31 35
M  V30 29 1 36 37
M  V30 30 1 36 38
M  V30 31 1 36 39
M  V30 32 1 36 40
M  V30 33 1 41 42
M  V30 34 1 41 43
M  V30 35 1 41 44
M  V30 36 1 41 45
M  V30 37 1 46 47
M  V30 38 1 47 48
M  V30 39 1 49 50
M  V30 40 1 50 51
M  V30 41 1 52 53
M  V30 42 1 53 54
M  V30 43 1 55 56
M  V30 44 1 56 57
M  V30 45 1 58 59
M  V30 46 1 59 60
M  V30 47 1 61 62
M  V30 48 1 62 63
M  V30 49 1 64 65
M  V30 50 1 65 66
M  V30 51 1 67 68
M  V30 52 1 68 69
M  V30 53 1 70 71
M  V30 54 1 71 72
M  V30 55 1 73 74
M  V30 56 1 74 75
M  V30 57 1 76 77
M  V30 58 1 77 78
M  V30 59 1 79 80
M  V30 60 1 80 81
M  V30 61 1 82 83
M  V30 62 1 83 84
M  V30 63 1 85 86
M  V30 64 1 86 87
M  V30 65 1 88 89
M  V30 66 1 89 90
M  V30 67 1 91 92
M  V30 68 1 92 93
M  V30 69 1 94 95
M  V30 70 1 95 96
M  V30 71 1 97 98
M  V30 72 1 98 99
M  V30 73 1 2 61
M  V30 74 1 3 64
M  V30 75 1 4 46
M  V30 76 1 5 94
M  V30 77 1 7 58
M  V30 78 1 8 88
M  V30 79 1 9 79
M  V30 80 1 10 73
M  V30 81 1 12 82
M  V30 82 1 13 55
M  V30 83 1 14 91
M  V30 84 1 15 52
M  V30 85 1 17 75
M  V30 86 1 18 76
M  V30 87 1 19 57
M  V30 88 1 20 81
M  V30 89 1 22 93
M  V30 90 1 23 48
M  V30 91 1 24 67
M  V30 92 1 25 63
M  V30 93 1 27 49
M  V30 94 1 28 97
M  V30 95 1 29 69
M  V30 96 1 30 78
M  V30 97 1 32 84
M  V30 98 1 33 70
M  V30 99 1 34 85
M  V30 100 1 35 51
M  V30 101 1 37 96
M  V30 102 1 38 54
M  V30 103 1 39 99
M  V30 104 1 40 66
M  V30 105 1 42 72
M  V30 106 1 43 60
M  V30 107 1 44 87
M  V30 108 1 45 90
M  V30 END BOND
M  V30 END CTAB
M  END

$$$$
