
     RDKit          3D

  0  0  0  0  0  0  0  0  0  0999 V3000
M  V30 BEGIN CTAB
M  V30 COUNTS 99 108 0 0 0
M  V30 BEGIN ATOM
M  V30 1 Pd 3.5587 -1.0853 -3.0837 0
M  V30 2 Pb 3.5071 -2.0725 -2.9282 0
M  V30 3 Pb 4.1943 -0.9591 -2.3171 0
M  V30 4 Pb 3.0524 -1.2540 -3.9342 0
M  V30 5 Pb 3.5236 -0.0884 -3.1752 0
M  V30 6 Pd -1.0248 -2.7726 4.6111 0
M  V30 7 Pb -0.8860 -2.9660 5.5795 0
M  V30 8 Pb -0.1324 -3.2194 4.4209 0
M  V30 9 Pb -1.8501 -2.2534 4.8510 0
M  V30 10 Pb -1.1768 -2.5275 3.6543 0
M  V30 11 Pd -0.8537 5.1970 -3.0644 0
M  V30 12 Pb 0.0783 4.8511 -2.9456 0
M  V30 13 Pb -1.8041 5.5011 -3.1882 0
M  V30 14 Pb -0.6668 5.0759 -4.0405 0
M  V30 15 Pb -0.9856 5.3166 -2.0796 0
M  V30 16 Pd 1.1634 0.0632 5.3289 0
M  V30 17 Pb 1.2880 0.4236 4.4140 0
M  V30 18 Pb 1.0455 0.9833 5.6860 0
M  V30 19 Pb 1.0614 -0.3129 6.2478 0
M  V30 20 Pb 1.1266 -0.8740 4.9480 0
M  V30 21 Pd -0.5060 -0.2077 -7.3808 0
M  V30 22 Pb 0.2614 -0.7455 -7.0308 0
M  V30 23 Pb 0.0613 0.5770 -7.6097 0
M  V30 24 Pb -1.1843 -0.8194 -6.9706 0
M  V30 25 Pb -1.2648 0.3412 -7.7103 0
M  V30 26 Pd 4.3644 -2.1534 2.2467 0
M  V30 27 Pb 3.7165 -2.6441 2.8512 0
M  V30 28 Pb 4.9184 -2.9779 2.2984 0
M  V30 29 Pb 3.7727 -1.3612 2.1273 0
M  V30 30 Pb 4.9648 -1.7304 1.5728 0
M  V30 31 Pd -2.8756 2.4105 3.8987 0
M  V30 32 Pb -3.1387 1.5874 4.4118 0
M  V30 33 Pb -2.5953 3.1988 3.3507 0
M  V30 34 Pb -2.2010 2.6807 4.5866 0
M  V30 35 Pb -3.5657 2.1867 3.2125 0
M  V30 36 Pd 1.5580 -4.0904 0.9224 0
M  V30 37 Pb 1.3244 -3.8406 1.8765 0
M  V30 38 Pb 2.2601 -4.7407 1.2153 0
M  V30 39 Pb 0.8327 -3.4749 0.6408 0
M  V30 40 Pb 1.8464 -4.2758 -0.0186 0
M  V30 41 Pd -5.3744 2.5976 -3.4907 0
M  V30 42 Pb -5.2645 2.7619 -4.4635 0
M  V30 43 Pb -5.2927 1.6176 -3.6965 0
M  V30 44 Pb -5.2844 3.5817 -3.3332 0
M  V30 45 Pb -5.4979 2.4038 -2.5185 0
M  V30 46 Ag -1.7678 -1.1072 -6.5919 0
M  V30 47 Fe -3.5308 -0.2849 -5.2196 0
M  V30 48 Ag -5.1222 0.9158 -3.9178 0
M  V30 49 Ag 3.4827 0.6623 -3.1558 0
M  V30 50 Fe 2.1522 2.6295 -3.0486 0
M  V30 51 Ag 0.7724 4.5627 -2.9441 0
M  V30 52 Ag -4.0920 2.0434 2.6999 0
M  V30 53 Fe -4.8385 2.1384 0.4487 0
M  V30 54 Ag -5.5995 2.2264 -1.7978 0
M  V30 55 Ag -0.3986 4.9246 -4.7267 0
M  V30 56 Fe 0.0598 3.2253 -6.3213 0
M  V30 57 Ag 0.3064 1.2800 -7.6598 0
M  V30 58 Ag -1.8387 0.7837 -7.8681 0
M  V30 59 Fe -3.5878 1.9092 -6.7477 0
M  V30 60 Ag -5.1253 2.7996 -5.1907 0
M  V30 61 Ag -1.0996 5.4221 -1.3450 0
M  V30 62 Fe -1.7329 4.6020 0.7927 0
M  V30 63 Ag -2.3673 3.7743 2.9270 0
M  V30 64 Ba 2.7711 -1.4926 -4.5923 0
M  V30 65 Ga 1.7642 -1.2552 -5.6475 0
M  V30 66 Ba 0.8300 -1.1713 -6.7899 0
M  V30 67 Ba -2.5263 5.7230 -3.2126 0
M  V30 68 Ga -3.8392 5.0387 -3.2445 0
M  V30 69 Ba -5.1310 4.3157 -3.2801 0
M  V30 70 Ba 4.7368 -0.8482 -1.8049 0
M  V30 71 Ga 5.0351 -1.1304 -0.3869 0
M  V30 72 Ba 5.3556 -1.3993 1.0289 0
M  V30 73 Ba 5.1436 -3.6838 2.3043 0
M  V30 74 Ga 4.1128 -4.6291 1.8855 0
M  V30 75 Ba 2.8401 -5.1719 1.4136 0
M  V30 76 Ba 3.3937 -2.8080 -2.8270 0
M  V30 77 Ga 2.7640 -3.6181 -1.7643 0
M  V30 78 Ba 2.1326 -4.4223 -0.6981 0
M  V30 79 Ba -0.7186 -2.9788 6.3045 0
M  V30 80 Ga 0.1155 -1.8992 6.8221 0
M  V30 81 Ba 0.9326 -0.6912 6.8772 0
M  V30 82 Ba 0.8369 1.6574 5.9211 0
M  V30 83 Ga -0.4058 2.3454 5.5399 0
M  V30 84 Ba -1.6799 2.9146 5.0741 0
M  V30 85 Ba -2.4448 -1.8418 5.0654 0
M  V30 86 Ga -2.8887 -0.4378 4.9021 0
M  V30 87 Ba -3.3655 0.9578 4.7617 0
M  V30 88 Ba -1.2984 -2.3206 2.9442 0
M  V30 89 Ga -0.5878 -2.6153 1.6946 0
M  V30 90 Ba 0.2491 -3.0251 0.5622 0
M  V30 91 Ba 0.5528 -3.5577 4.3634 0
M  V30 92 Ga 1.9180 -3.3148 3.8111 0
M  V30 93 Ba 3.2861 -3.1195 3.2651 0
M  V30 94 Ba 1.0205 -1.5935 4.7205 0
M  V30 95 Ga 1.0698 -2.5266 3.5601 0
M  V30 96 Ba 1.1425 -3.6679 2.5974 0
M  V30 97 Ba 1.4344 0.6320 3.7188 0
M  V30 98 Ga 2.3760 -0.0189 2.8056 0
M  V30 99 Ba 3.3452 -0.7629 1.9979 0
M  V30 END ATOM
M  V30 BEGIN BOND
M  V30 1 1 1 2
M  V30 2 1 1 3
M  V30 3 1 1 4
M  V30 4 1 1 5
M  V30 5 1 6 7
M  V30 6 1 6 8
M  V30 7 1 6 9
M  V30 8 1 6 10
M  V30 9 1 11 12
M  V30 10 1 11 13
M  V30 11 1 11 14
M  V30 12 1 11 15
M  V30 13 1 16 17
M  V30 14 1 16 18
M  V30 15 1 16 19
M  V30 16 1 16 20
M  V30 17 1 21 22
M  V30 18 1 21 23
M  V30 19 1 21 24
M  V30 20 1 21 25
M  V30 21 1 26 27
M  V30 22 1 26 28
M  V30 23 1 26 29
M  V30 24 1 26 30
M  V30 25 1 31 32
M  V30 26 1 31 33
M  V30 27 1 31 34
M  V30 28 1 31 35
M  V30 29 1 36 37
M  V30 30 1 36 38
M  V30 31 1 36 39
M  V30 32 1 36 40
M  V30 33 1 41 42
M  V30 34 1 41 43
M  V30 35 1 41 44
M  V30 36 1 41 45
M  V30 37 1 46 47
M  V30 38 1 47 48
M  V30 39 1 49 50
M  V30 40 1 50 51
M  V30 41 1 52 53
M  V30 42 1 53 54
M  V30 43 1 55 56
M  V30 44 1 56 57
M  V30 45 1 58 59
M  V30 46 1 59 60
M  V30 47 1 61 62
M  V30 48 1 62 63
M  V30 49 1 64 65
M  V30 50 1 65 66
M  V30 51 1 67 68
M  V30 52 1 68 69
M  V30 53 1 70 71
M  V30 54 1 71 72
M  V30 55 1 73 74
M  V30 56 1 74 75
M  V30 57 1 76 77
M  V30 58 1 77 78
M  V30 59 1 79 80
M  V30 60 1 80 81
M  V30 61 1 82 83
M  V30 62 1 83 84
M  V30 63 1 85 86
M  V30 64 1 86 87
M  V30 65 1 88 89
M  V30 66 1 89 90
M  V30 67 1 91 92
M  V30 68 1 92 93
M  V30 69 1 94 95
M  V30 70 1 95 96
M  V30 71 1 97 98
M  V30 72 1 98 99
M  V30 73 1 2 76
M  V30 74 1 3 70
M  V30 75 1 4 64
M  V30 76 1 5 49
M  V30 77 1 7 79
M  V30 78 1 8 91
M  V30 79 1 9 85
M  V30 80 1 10 88
M  V30 81 1 12 51
M  V30 82 1 13 67
M  V30 83 1 14 55
M  V30 84 1 15 61
M  V30 85 1 17 97
M  V30 86 1 18 82
M  V30 87 1 19 81
M  V30 88 1 20 94
M  V30 89 1 22 66
M  V30 90 1 23 57
M  V30 91 1 24 46
M  V30 92 1 25 58
M  V30 93 1 27 93
M  V30 94 1 28 73
M  V30 95 1 29 99
M  V30 96 1 30 72
M  V30 97 1 32 87
M  V30 98 1 33 63
M  V30 99 1 34 84
M  V30 100 1 35 52
M  V30 101 1 37 96
M  V30 102 1 38 75
M  V30 103 1 39 90
M  V30 104 1 40 78
M  V30 105 1 42 60
M  V30 106 1 43 48
M  V30 107 1 44 69
M  V30 108 1 45 54
M  V30 END BOND
M  V30 END CTAB
M  END

$$$$
