
     RDKit          3D

  0  0  0  0  0  0  0  0  0  0999 V3000
M  V30 BEGIN CTAB
M  V30 COUNTS 99 108 0 0 0
M  V30 BEGIN ATOM
M  V30 1 Pd 3.3032 -0.6668 2.6729 0
M  V30 2 Pb 3.3669 -0.7951 1.6819 0
M  V30 3 Pb 4.1043 -0.0705 2.6107 0
M  V30 4 Pb 2.4779 -1.2279 2.7345 0
M  V30 5 Pb 3.2546 -0.5154 3.6610 0
M  V30 6 Pd 0.7131 5.6915 0.7983 0
M  V30 7 Pb 0.7427 4.7400 0.4841 0
M  V30 8 Pb 0.6759 6.6523 1.0600 0
M  V30 9 Pb -0.0146 5.5087 1.4615 0
M  V30 10 Pb 1.5669 5.8807 0.2822 0
M  V30 11 Pd -2.0928 -1.0397 -5.9326 0
M  V30 12 Pb -1.9680 -1.9814 -6.2217 0
M  V30 13 Pb -2.2380 -0.1031 -5.6093 0
M  V30 14 Pb -3.0603 -1.1485 -6.1534 0
M  V30 15 Pb -1.1247 -1.0150 -5.6244 0
M  V30 16 Pd -6.4364 -4.9130 -2.3245 0
M  V30 17 Pb -6.6622 -4.5349 -3.2201 0
M  V30 18 Pb -6.0807 -5.2366 -1.4334 0
M  V30 19 Pb -6.5842 -3.9955 -1.9593 0
M  V30 20 Pb -6.2082 -5.8023 -2.7107 0
M  V30 21 Pd -2.5395 1.3575 -1.0260 0
M  V30 22 Pb -1.5888 1.6639 -0.9418 0
M  V30 23 Pb -2.5713 1.6462 -1.9853 0
M  V30 24 Pb -3.4750 1.0093 -1.0738 0
M  V30 25 Pb -2.5045 1.0666 -0.0727 0
M  V30 26 Pd -1.4753 -6.3659 0.3863 0
M  V30 27 Pb -2.4798 -6.2491 0.4781 0
M  V30 28 Pb -0.4822 -6.4548 0.2885 0
M  V30 29 Pb -1.3088 -5.6248 1.0340 0
M  V30 30 Pb -1.6491 -7.0913 -0.2740 0
M  V30 31 Pd 1.9725 -3.5508 -2.3851 0
M  V30 32 Pb 2.4434 -2.8408 -1.8583 0
M  V30 33 Pb 2.1510 -4.2564 -1.6986 0
M  V30 34 Pb 1.7440 -2.8480 -3.0862 0
M  V30 35 Pb 1.5593 -4.2503 -2.9560 0
M  V30 36 Pd 0.7795 2.9563 5.4417 0
M  V30 37 Pb 0.1187 2.2926 5.1018 0
M  V30 38 Pb 1.4781 3.6064 5.7471 0
M  V30 39 Pb 0.1935 3.6606 5.0299 0
M  V30 40 Pb 1.3557 2.2145 5.7824 0
M  V30 41 Pd 5.7994 6.5732 2.3379 0
M  V30 42 Pb 5.5024 7.5209 2.4220 0
M  V30 43 Pb 6.0600 5.6091 2.2779 0
M  V30 44 Pb 5.8576 6.5139 3.3301 0
M  V30 45 Pb 5.4401 6.5521 1.3937 0
M  V30 46 Ag -2.4588 0.8642 0.6452 0
M  V30 47 Fe -1.4663 1.2705 2.7596 0
M  V30 48 Ag -0.3726 1.8267 4.7882 0
M  V30 49 Ag -6.6440 -3.2809 -1.7438 0
M  V30 50 Fe -5.4708 -1.2491 -1.3826 0
M  V30 51 Ag -4.1593 0.7040 -1.0649 0
M  V30 52 Ag 0.8024 7.3549 1.2616 0
M  V30 53 Fe 2.8160 8.3539 1.9570 0
M  V30 54 Ag 5.1064 8.1463 2.4514 0
M  V30 55 Ag -1.8127 -2.6991 -6.3081 0
M  V30 56 Fe -0.3753 -4.1283 -5.1119 0
M  V30 57 Ag 1.2102 -4.6665 -3.4577 0
M  V30 58 Ag -5.8834 -6.4437 -2.8956 0
M  V30 59 Fe -3.8805 -7.4078 -2.1034 0
M  V30 60 Ag -1.9240 -7.5482 -0.7913 0
M  V30 61 Ag -3.7754 -1.3468 -6.2480 0
M  V30 62 Fe -5.4171 -2.7117 -5.2144 0
M  V30 63 Ag -6.7251 -4.1558 -3.8616 0
M  V30 64 Ag 1.8454 -1.6233 2.8118 0
M  V30 65 Fe 0.3473 -3.3447 2.1572 0
M  V30 66 Ag -1.1533 -5.0651 1.5058 0
M  V30 67 Ag 2.0588 4.0398 5.9485 0
M  V30 68 Fe 3.9421 5.2710 5.1892 0
M  V30 69 Ag 5.6893 6.4033 4.0487 0
M  V30 70 Ag 4.6888 0.3947 2.5371 0
M  V30 71 Fe 5.4944 2.6252 2.3967 0
M  V30 72 Ag 6.2338 4.8791 2.2641 0
M  V30 73 Ba 0.8068 4.0452 0.2020 0
M  V30 74 Ga -0.0666 2.9689 -0.3119 0
M  V30 75 Ba -0.8650 1.8438 -0.8431 0
M  V30 76 Ba 3.4748 -0.8302 0.9393 0
M  V30 77 Ga 3.0965 -1.6101 -0.2563 0
M  V30 78 Ba 2.8259 -2.2733 -1.5476 0
M  V30 79 Ba -5.8004 -5.4704 -0.7637 0
M  V30 80 Ga -4.4862 -5.8145 -0.1458 0
M  V30 81 Ba -3.2350 -6.1821 0.5795 0
M  V30 82 Ba -0.3929 -0.9986 -5.3978 0
M  V30 83 Ga 0.5550 -1.6998 -4.4771 0
M  V30 84 Ba 1.6147 -2.2996 -3.6084 0
M  V30 85 Ba 2.2330 6.0242 -0.0683 0
M  V30 86 Ga 3.6519 6.2701 0.3341 0
M  V30 87 Ba 5.0738 6.5171 0.7255 0
M  V30 88 Ba -0.4960 5.4285 2.0342 0
M  V30 89 Ga -0.4015 4.7682 3.3563 0
M  V30 90 Ba -0.3024 4.1089 4.6785 0
M  V30 91 Ba 3.2102 -0.3911 4.4000 0
M  V30 92 Ga 2.5127 0.6153 5.2223 0
M  V30 93 Ba 1.7942 1.6457 5.9952 0
M  V30 94 Ba 0.2682 -6.4750 0.2409 0
M  V30 95 Ga 1.2708 -5.6614 -0.4768 0
M  V30 96 Ba 2.2382 -4.8230 -1.2138 0
M  V30 97 Ba -2.3492 0.5963 -5.3578 0
M  V30 98 Ga -2.4703 1.2256 -4.0264 0
M  V30 99 Ba -2.5937 1.8708 -2.7029 0
M  V30 END ATOM
M  V30 BEGIN BOND
M  V30 1 1 1 2
M  V30 2 1 1 3
M  V30 3 1 1 4
M  V30 4 1 1 5
M  V30 5 1 6 7
M  V30 6 1 6 8
M  V30 7 1 6 9
M  V30 8 1 6 10
M  V30 9 1 11 12
M  V30 10 1 11 13
M  V30 11 1 11 14
M  V30 12 1 11 15
M  V30 13 1 16 17
M  V30 14 1 16 18
M  V30 15 1 16 19
M  V30 16 1 16 20
M  V30 17 1 21 22
M  V30 18 1 21 23
M  V30 19 1 21 24
M  V30 20 1 21 25
M  V30 21 1 26 27
M  V30 22 1 26 28
M  V30 23 1 26 29
M  V30 24 1 26 30
M  V30 25 1 31 32
M  V30 26 1 31 33
M  V30 27 1 31 34
M  V30 28 1 31 35
M  V30 29 1 36 37
M  V30 30 1 36 38
M  V30 31 1 36 39
M  V30 32 1 36 40
M  V30 33 1 41 42
M  V30 34 1 41 43
M  V30 35 1 41 44
M  V30 36 1 41 45
M  V30 37 1 46 47
M  V30 38 1 47 48
M  V30 39 1 49 50
M  V30 40 1 50 51
M  V30 41 1 52 53
M  V30 42 1 53 54
M  V30 43 1 55 56
M  V30 44 1 56 57
M  V30 45 1 58 59
M  V30 46 1 59 60
M  V30 47 1 61 62
M  V30 48 1 62 63
M  V30 49 1 64 65
M  V30 50 1 65 66
M  V30 51 1 67 68
M  V30 52 1 68 69
M  V30 53 1 70 71
M  V30 54 1 71 72
M  V30 55 1 73 74
M  V30 56 1 74 75
M  V30 57 1 76 77
M  V30 58 1 77 78
M  V30 59 1 79 80
M  V30 60 1 80 81
M  V30 61 1 82 83
M  V30 62 1 83 84
M  V30 63 1 85 86
M  V30 64 1 86 87
M  V30 65 1 88 89
M  V30 66 1 89 90
M  V30 67 1 91 92
M  V30 68 1 92 93
M  V30 69 1 94 95
M  V30 70 1 95 96
M  V30 71 1 97 98
M  V30 72 1 98 99
M  V30 73 1 2 76
M  V30 74 1 3 70
M  V30 75 1 4 64
M  V30 76 1 5 91
M  V30 77 1 7 73
M  V30 78 1 8 52
M  V30 79 1 9 88
M  V30 80 1 10 85
M  V30 81 1 12 55
M  V30 82 1 13 97
M  V30 83 1 14 61
M  V30 84 1 15 82
M  V30 85 1 17 63
M  V30 86 1 18 79
M  V30 87 1 19 49
M  V30 88 1 20 58
M  V30 89 1 22 75
M  V30 90 1 23 99
M  V30 91 1 24 51
M  V30 92 1 25 46
M  V30 93 1 27 81
M  V30 94 1 28 94
M  V30 95 1 29 66
M  V30 96 1 30 60
M  V30 97 1 32 78
M  V30 98 1 33 96
M  V30 99 1 34 84
M  V30 100 1 35 57
M  V30 101 1 37 48
M  V30 102 1 38 67
M  V30 103 1 39 90
M  V30 104 1 40 93
M  V30 105 1 42 54
M  V30 106 1 43 72
M  V30 107 1 44 69
M  V30 108 1 45 87
M  V30 END BOND
M  V30 END CTAB
M  END

$$$$
