
     RDKit          3D

  0  0  0  0  0  0  0  0  0  0999 V3000
M  V30 BEGIN CTAB
M  V30 COUNTS 99 108 0 0 0
M  V30 BEGIN ATOM
M  V30 1 Pd -1.4027 3.8871 0.7965 0
M  V30 2 Pb -1.4420 4.4351 -0.0385 0
M  V30 3 Pb -1.6694 3.0810 0.2648 0
M  V30 4 Pb -1.1034 4.6860 1.3171 0
M  V30 5 Pb -1.2790 3.3208 1.6119 0
M  V30 6 Pd -6.5512 -4.2303 -1.4935 0
M  V30 7 Pb -5.5817 -4.4746 -1.5471 0
M  V30 8 Pb -6.4353 -3.5267 -2.2132 0
M  V30 9 Pb -6.6180 -4.7580 -0.6500 0
M  V30 10 Pb -7.5127 -3.9757 -1.4237 0
M  V30 11 Pd 4.6269 -1.4056 -4.4282 0
M  V30 12 Pb 4.9165 -0.4523 -4.6515 0
M  V30 13 Pb 4.2814 -2.2964 -4.1353 0
M  V30 14 Pb 5.3205 -1.5229 -3.7190 0
M  V30 15 Pb 3.9390 -1.3504 -5.1423 0
M  V30 16 Pd 5.3760 -1.5605 2.9007 0
M  V30 17 Pb 5.8996 -1.9637 2.1546 0
M  V30 18 Pb 5.8620 -0.7141 2.7177 0
M  V30 19 Pb 4.9031 -2.4243 3.0864 0
M  V30 20 Pb 4.8148 -1.0375 3.5492 0
M  V30 21 Pd 0.8706 -4.8038 1.3741 0
M  V30 22 Pb 0.0579 -4.8854 0.7921 0
M  V30 23 Pb 1.4084 -4.8203 0.5286 0
M  V30 24 Pb 1.6959 -4.7551 1.9420 0
M  V30 25 Pb 0.3403 -4.8479 2.2246 0
M  V30 26 Pd 3.4150 5.2989 2.4588 0
M  V30 27 Pb 4.3016 4.8664 2.3501 0
M  V30 28 Pb 3.6135 5.8401 1.6430 0
M  V30 29 Pb 2.5162 5.7250 2.5643 0
M  V30 30 Pb 3.2292 4.6251 3.1815 0
M  V30 31 Pd 2.8637 4.2200 -4.9146 0
M  V30 32 Pb 2.0312 4.7393 -4.7297 0
M  V30 33 Pb 3.3100 4.7788 -4.2138 0
M  V30 34 Pb 2.3848 3.6925 -5.6065 0
M  V30 35 Pb 3.6635 3.5938 -5.0085 0
M  V30 36 Pd -3.2396 -2.3972 4.4471 0
M  V30 37 Pb -2.5665 -3.1300 4.5432 0
M  V30 38 Pb -3.8794 -1.6426 4.2974 0
M  V30 39 Pb -3.9283 -3.0900 4.2315 0
M  V30 40 Pb -2.5533 -1.6866 4.5818 0
M  V30 41 Pd -5.9518 1.1093 -1.1500 0
M  V30 42 Pb -5.9841 0.5202 -1.9717 0
M  V30 43 Pb -4.9505 1.0924 -1.1728 0
M  V30 44 Pb -5.9305 1.4620 -0.2180 0
M  V30 45 Pb -6.9481 1.0903 -1.1154 0
M  V30 46 Ag -4.8570 -4.6708 -1.5747 0
M  V30 47 Fe -2.6991 -4.7869 -0.5834 0
M  V30 48 Ag -0.4942 -4.9699 0.2869 0
M  V30 49 Ag -1.4018 4.8094 -0.6863 0
M  V30 50 Fe -0.1011 5.0573 -2.6561 0
M  V30 51 Ag 1.4023 5.0680 -4.4924 0
M  V30 52 Ag 6.1823 -0.0576 2.5851 0
M  V30 53 Fe 5.7347 2.2563 2.3971 0
M  V30 54 Ag 4.9288 4.4760 2.2836 0
M  V30 55 Ag 3.4318 -1.1801 -5.6526 0
M  V30 56 Fe 2.4426 0.8717 -6.2432 0
M  V30 57 Ag 2.0906 3.1914 -6.0634 0
M  V30 58 Ag -8.1616 -3.6202 -1.3684 0
M  V30 59 Fe -8.5212 -1.2995 -1.2014 0
M  V30 60 Ag -7.6621 0.8900 -1.0985 0
M  V30 61 Ag 4.4188 -0.5354 3.9519 0
M  V30 62 Fe 3.7115 1.7398 3.9301 0
M  V30 63 Ag 3.1466 4.0378 3.6506 0
M  V30 64 Ag 5.7913 -1.7176 -3.1692 0
M  V30 65 Fe 6.1327 -1.9739 -0.8346 0
M  V30 66 Ag 6.2707 -2.1350 1.5290 0
M  V30 67 Ag -6.6006 -5.0210 0.0493 0
M  V30 68 Fe -5.5857 -4.4606 2.1201 0
M  V30 69 Ag -4.4121 -3.6159 4.0025 0
M  V30 70 Ag -1.1434 2.8876 2.2097 0
M  V30 71 Fe -1.5670 0.9166 3.4634 0
M  V30 72 Ag -2.1021 -1.0915 4.6106 0
M  V30 73 Ag -4.2777 -1.0246 4.1449 0
M  V30 74 Fe -5.1523 0.3772 2.4399 0
M  V30 75 Ag -5.9149 1.5524 0.5236 0
M  V30 76 Ag 3.7970 6.1370 0.9798 0
M  V30 77 Fe 3.7217 5.7609 -1.3649 0
M  V30 78 Ag 3.5664 5.2390 -3.6776 0
M  V30 79 Ag 4.0278 -2.9353 -3.8364 0
M  V30 80 Fe 2.8994 -3.9215 -1.9923 0
M  V30 81 Ag 1.7693 -4.8706 -0.1297 0
M  V30 82 Ba 0.0040 -4.9215 2.8948 0
M  V30 83 Ga -1.0433 -4.2826 3.7176 0
M  V30 84 Ba -2.0771 -3.6957 4.5946 0
M  V30 85 Ba 4.5843 -3.0894 3.2333 0
M  V30 86 Ga 3.4228 -3.8861 2.7847 0
M  V30 87 Ba 2.2912 -4.7571 2.4029 0
M  V30 88 Ba -6.3467 -2.9531 -2.7104 0
M  V30 89 Ga -6.1819 -1.4708 -2.6206 0
M  V30 90 Ba -6.0166 0.0119 -2.5400 0
M  V30 91 Ba 5.1439 0.2639 -4.8232 0
M  V30 92 Ga 4.6365 1.6716 -4.9303 0
M  V30 93 Ba 4.2651 3.1177 -5.0767 0
M  V30 94 Ba -0.8540 5.2737 1.7093 0
M  V30 95 Ga 0.4851 5.6726 2.1806 0
M  V30 96 Ba 1.8389 6.0397 2.6356 0
M  V30 97 Ba -1.8365 2.4775 -0.1513 0
M  V30 98 Ga -3.0416 1.7877 -0.6554 0
M  V30 99 Ba -4.2006 1.0468 -1.1940 0
M  V30 END ATOM
M  V30 BEGIN BOND
M  V30 1 1 1 2
M  V30 2 1 1 3
M  V30 3 1 1 4
M  V30 4 1 1 5
M  V30 5 1 6 7
M  V30 6 1 6 8
M  V30 7 1 6 9
M  V30 8 1 6 10
M  V30 9 1 11 12
M  V30 10 1 11 13
M  V30 11 1 11 14
M  V30 12 1 11 15
M  V30 13 1 16 17
M  V30 14 1 16 18
M  V30 15 1 16 19
M  V30 16 1 16 20
M  V30 17 1 21 22
M  V30 18 1 21 23
M  V30 19 1 21 24
M  V30 20 1 21 25
M  V30 21 1 26 27
M  V30 22 1 26 28
M  V30 23 1 26 29
M  V30 24 1 26 30
M  V30 25 1 31 32
M  V30 26 1 31 33
M  V30 27 1 31 34
M  V30 28 1 31 35
M  V30 29 1 36 37
M  V30 30 1 36 38
M  V30 31 1 36 39
M  V30 32 1 36 40
M  V30 33 1 41 42
M  V30 34 1 41 43
M  V30 35 1 41 44
M  V30 36 1 41 45
M  V30 37 1 46 47
M  V30 38 1 47 48
M  V30 39 1 49 50
M  V30 40 1 50 51
M  V30 41 1 52 53
M  V30 42 1 53 54
M  V30 43 1 55 56
M  V30 44 1 56 57
M  V30 45 1 58 59
M  V30 46 1 59 60
M  V30 47 1 61 62
M  V30 48 1 62 63
M  V30 49 1 64 65
M  V30 50 1 65 66
M  V30 51 1 67 68
M  V30 52 1 68 69
M  V30 53 1 70 71
M  V30 54 1 71 72
M  V30 55 1 73 74
M  V30 56 1 74 75
M  V30 57 1 76 77
M  V30 58 1 77 78
M  V30 59 1 79 80
M  V30 60 1 80 81
M  V30 61 1 82 83
M  V30 62 1 83 84
M  V30 63 1 85 86
M  V30 64 1 86 87
M  V30 65 1 88 89
M  V30 66 1 89 90
M  V30 67 1 91 92
M  V30 68 1 92 93
M  V30 69 1 94 95
M  V30 70 1 95 96
M  V30 71 1 97 98
M  V30 72 1 98 99
M  V30 73 1 2 49
M  V30 74 1 3 97
M  V30 75 1 4 94
M  V30 76 1 5 70
M  V30 77 1 7 46
M  V30 78 1 8 88
M  V30 79 1 9 67
M  V30 80 1 10 58
M  V30 81 1 12 91
M  V30 82 1 13 79
M  V30 83 1 14 64
M  V30 84 1 15 55
M  V30 85 1 17 66
M  V30 86 1 18 52
M  V30 87 1 19 85
M  V30 88 1 20 61
M  V30 89 1 22 48
M  V30 90 1 23 81
M  V30 91 1 24 87
M  V30 92 1 25 82
M  V30 93 1 27 54
M  V30 94 1 28 76
M  V30 95 1 29 96
M  V30 96 1 30 63
M  V30 97 1 32 51
M  V30 98 1 33 78
M  V30 99 1 34 57
M  V30 100 1 35 93
M  V30 101 1 37 84
M  V30 102 1 38 73
M  V30 103 1 39 69
M  V30 104 1 40 72
M  V30 105 1 42 90
M  V30 106 1 43 99
M  V30 107 1 44 75
M  V30 108 1 45 60
M  V30 END BOND
M  V30 END CTAB
M  END

$$$$
