
     RDKit          3D

  0  0  0  0  0  0  0  0  0  0999 V3000
M  V30 BEGIN CTAB
M  V30 COUNTS 99 108 0 0 0
M  V30 BEGIN ATOM
M  V30 1 Pd -2.8469 -1.5822 5.9625 0
M  V30 2 Pb -2.0807 -1.1017 6.3866 0
M  V30 3 Pb -2.2226 -2.2300 5.4797 0
M  V30 4 Pb -3.6330 -2.0010 5.5270 0
M  V30 5 Pb -3.4337 -0.8633 6.3290 0
M  V30 6 Pd -1.8593 -3.4978 -4.8738 0
M  V30 7 Pb -1.4032 -2.9890 -5.6038 0
M  V30 8 Pb -1.1398 -4.1752 -4.9261 0
M  V30 9 Pb -2.2012 -4.0342 -4.1004 0
M  V30 10 Pb -2.6019 -2.8276 -4.8348 0
M  V30 11 Pd 4.1090 2.0079 0.1670 0
M  V30 12 Pb 3.6176 2.8664 0.3431 0
M  V30 13 Pb 4.6516 1.1760 0.0571 0
M  V30 14 Pb 4.1312 1.8219 1.1440 0
M  V30 15 Pb 4.1079 2.1956 -0.8182 0
M  V30 16 Pd 1.6437 4.0587 4.4836 0
M  V30 17 Pb 1.8620 4.4612 3.5909 0
M  V30 18 Pb 1.3911 3.5644 5.3127 0
M  V30 19 Pb 2.3177 3.3439 4.3257 0
M  V30 20 Pb 0.9786 4.7827 4.6761 0
M  V30 21 Pd -2.9204 1.8580 -3.3142 0
M  V30 22 Pb -2.5550 2.6648 -2.8498 0
M  V30 23 Pb -2.2684 1.9946 -4.0596 0
M  V30 24 Pb -3.5663 1.7727 -2.5567 0
M  V30 25 Pb -3.3274 1.0599 -3.7627 0
M  V30 26 Pd 2.2280 0.2403 -5.0492 0
M  V30 27 Pb 1.4929 0.8953 -5.2271 0
M  V30 28 Pb 2.9956 -0.3964 -4.9323 0
M  V30 29 Pb 1.7209 -0.3950 -5.6378 0
M  V30 30 Pb 2.7385 0.9263 -4.5235 0
M  V30 31 Pd -1.1056 -4.4050 0.8500 0
M  V30 32 Pb -0.1051 -4.5339 0.7893 0
M  V30 33 Pb -0.9782 -4.1358 1.8286 0
M  V30 34 Pb -2.0886 -4.3436 0.9623 0
M  V30 35 Pb -1.3291 -4.7212 -0.0786 0
M  V30 36 Pd -3.4954 4.8665 3.3274 0
M  V30 37 Pb -2.8677 5.4285 3.8638 0
M  V30 38 Pb -3.9034 4.4885 4.1569 0
M  V30 39 Pb -4.0625 4.2581 2.7734 0
M  V30 40 Pb -3.0549 5.1574 2.4791 0
M  V30 41 Pd 4.2130 -3.4962 -1.4897 0
M  V30 42 Pb 4.7021 -2.8053 -0.9612 0
M  V30 43 Pb 3.7931 -4.1992 -2.0457 0
M  V30 44 Pb 3.7654 -3.8919 -0.6829 0
M  V30 45 Pb 4.5651 -3.0836 -2.3300 0
M  V30 46 Ag -4.1369 -2.3155 5.0895 0
M  V30 47 Fe -3.9306 -3.4079 3.0166 0
M  V30 48 Ag -2.8006 -4.2900 1.1511 0
M  V30 49 Ag -3.8141 -0.2488 6.5195 0
M  V30 50 Fe -4.1245 1.9841 5.7821 0
M  V30 51 Ag -4.1789 4.1166 4.7448 0
M  V30 52 Ag -2.3330 3.2649 -2.4584 0
M  V30 53 Fe -2.4620 4.3716 -0.3615 0
M  V30 54 Ag -2.7362 5.2845 1.8132 0
M  V30 55 Ag -4.0196 1.7795 -1.9602 0
M  V30 56 Fe -4.3315 2.7205 0.1969 0
M  V30 57 Ag -4.4230 3.7869 2.3158 0
M  V30 58 Ag -0.5801 -4.6554 -4.8873 0
M  V30 59 Fe 1.4943 -4.8941 -3.7903 0
M  V30 60 Ag 3.4558 -4.6759 -2.4985 0
M  V30 61 Ag -1.5580 -0.6640 6.6970 0
M  V30 62 Fe -0.1372 1.2123 6.3921 0
M  V30 63 Ag 1.2038 3.0986 5.8671 0
M  V30 64 Ba -0.9909 -2.6520 -6.1325 0
M  V30 65 Ga 0.1572 -1.7210 -6.1110 0
M  V30 66 Ba 1.3083 -0.7936 -6.1271 0
M  V30 67 Ba -1.7145 -2.6903 5.1278 0
M  V30 68 Ga -1.3626 -3.3051 3.8053 0
M  V30 69 Ba -0.8526 -4.0016 2.5785 0
M  V30 70 Ba -1.7764 2.1511 -4.6034 0
M  V30 71 Ga -0.4135 1.7359 -4.9866 0
M  V30 72 Ba 0.9461 1.3693 -5.4269 0
M  V30 73 Ba 5.0909 0.5687 0.0757 0
M  V30 74 Ga 5.0620 -0.8582 -0.2919 0
M  V30 75 Ba 5.1284 -2.2933 -0.6208 0
M  V30 76 Ba 4.1616 1.6735 1.8733 0
M  V30 77 Ga 3.4962 2.2309 3.0569 0
M  V30 78 Ba 2.8200 2.8025 4.2275 0
M  V30 79 Ba 3.6080 -0.8321 -4.8679 0
M  V30 80 Ga 4.1827 -1.8039 -3.9137 0
M  V30 81 Ba 4.7838 -2.7802 -2.9805 0
M  V30 82 Ba 4.1227 2.3745 -1.5492 0
M  V30 83 Ga 3.6035 1.8714 -2.8394 0
M  V30 84 Ba 3.1407 1.4659 -4.1843 0
M  V30 85 Ba 0.4876 5.3291 4.8365 0
M  V30 86 Ga -0.9367 5.5872 4.5500 0
M  V30 87 Ba -2.3621 5.8233 4.2502 0
M  V30 88 Ba 3.2820 3.5238 0.5018 0
M  V30 89 Ga 2.6443 4.1219 1.6973 0
M  V30 90 Ba 2.0073 4.7143 2.8961 0
M  V30 91 Ba -2.3514 -4.5156 -3.5416 0
M  V30 92 Ga -1.9747 -4.6929 -2.1191 0
M  V30 93 Ba -1.6660 -4.9918 -0.7009 0
M  V30 94 Ba -3.1660 -2.3318 -4.8412 0
M  V30 95 Ga -3.3854 -0.9255 -4.4466 0
M  V30 96 Ba -3.6783 0.4743 -4.0778 0
M  V30 97 Ba 0.6400 -4.6582 0.8791 0
M  V30 98 Ga 1.9939 -4.3990 0.3282 0
M  V30 99 Ba 3.4017 -4.2199 -0.1091 0
M  V30 END ATOM
M  V30 BEGIN BOND
M  V30 1 1 1 2
M  V30 2 1 1 3
M  V30 3 1 1 4
M  V30 4 1 1 5
M  V30 5 1 6 7
M  V30 6 1 6 8
M  V30 7 1 6 9
M  V30 8 1 6 10
M  V30 9 1 11 12
M  V30 10 1 11 13
M  V30 11 1 11 14
M  V30 12 1 11 15
M  V30 13 1 16 17
M  V30 14 1 16 18
M  V30 15 1 16 19
M  V30 16 1 16 20
M  V30 17 1 21 22
M  V30 18 1 21 23
M  V30 19 1 21 24
M  V30 20 1 21 25
M  V30 21 1 26 27
M  V30 22 1 26 28
M  V30 23 1 26 29
M  V30 24 1 26 30
M  V30 25 1 31 32
M  V30 26 1 31 33
M  V30 27 1 31 34
M  V30 28 1 31 35
M  V30 29 1 36 37
M  V30 30 1 36 38
M  V30 31 1 36 39
M  V30 32 1 36 40
M  V30 33 1 41 42
M  V30 34 1 41 43
M  V30 35 1 41 44
M  V30 36 1 41 45
M  V30 37 1 46 47
M  V30 38 1 47 48
M  V30 39 1 49 50
M  V30 40 1 50 51
M  V30 41 1 52 53
M  V30 42 1 53 54
M  V30 43 1 55 56
M  V30 44 1 56 57
M  V30 45 1 58 59
M  V30 46 1 59 60
M  V30 47 1 61 62
M  V30 48 1 62 63
M  V30 49 1 64 65
M  V30 50 1 65 66
M  V30 51 1 67 68
M  V30 52 1 68 69
M  V30 53 1 70 71
M  V30 54 1 71 72
M  V30 55 1 73 74
M  V30 56 1 74 75
M  V30 57 1 76 77
M  V30 58 1 77 78
M  V30 59 1 79 80
M  V30 60 1 80 81
M  V30 61 1 82 83
M  V30 62 1 83 84
M  V30 63 1 85 86
M  V30 64 1 86 87
M  V30 65 1 88 89
M  V30 66 1 89 90
M  V30 67 1 91 92
M  V30 68 1 92 93
M  V30 69 1 94 95
M  V30 70 1 95 96
M  V30 71 1 97 98
M  V30 72 1 98 99
M  V30 73 1 2 61
M  V30 74 1 3 67
M  V30 75 1 4 46
M  V30 76 1 5 49
M  V30 77 1 7 64
M  V30 78 1 8 58
M  V30 79 1 9 91
M  V30 80 1 10 94
M  V30 81 1 12 88
M  V30 82 1 13 73
M  V30 83 1 14 76
M  V30 84 1 15 82
M  V30 85 1 17 90
M  V30 86 1 18 63
M  V30 87 1 19 78
M  V30 88 1 20 85
M  V30 89 1 22 52
M  V30 90 1 23 70
M  V30 91 1 24 55
M  V30 92 1 25 96
M  V30 93 1 27 72
M  V30 94 1 28 79
M  V30 95 1 29 66
M  V30 96 1 30 84
M  V30 97 1 32 97
M  V30 98 1 33 69
M  V30 99 1 34 48
M  V30 100 1 35 93
M  V30 101 1 37 87
M  V30 102 1 38 51
M  V30 103 1 39 57
M  V30 104 1 40 54
M  V30 105 1 42 75
M  V30 106 1 43 60
M  V30 107 1 44 99
M  V30 108 1 45 81
M  V30 END BOND
M  V30 END CTAB
M  END

$$$$
