
     RDKit          3D

  0  0  0  0  0  0  0  0  0  0999 V3000
M  V30 BEGIN CTAB
M  V30 COUNTS 99 108 0 0 0
M  V30 BEGIN ATOM
M  V30 1 Pd 4.0505 2.7710 1.0665 0
M  V30 2 Pb 4.0326 3.5406 0.4235 0
M  V30 3 Pb 4.1317 2.0337 1.7358 0
M  V30 4 Pb 3.4409 3.2319 1.7159 0
M  V30 5 Pb 4.6748 2.2970 0.4416 0
M  V30 6 Pd 1.7111 -7.1920 2.5962 0
M  V30 7 Pb 0.9145 -6.6008 2.4685 0
M  V30 8 Pb 1.7477 -6.9640 3.5662 0
M  V30 9 Pb 1.8087 -7.2740 1.6103 0
M  V30 10 Pb 2.5755 -7.6803 2.7006 0
M  V30 11 Pd -4.0407 1.4093 -5.3262 0
M  V30 12 Pb -4.0479 2.3878 -5.1388 0
M  V30 13 Pb -4.0120 0.4216 -5.4777 0
M  V30 14 Pb -5.0147 1.3603 -5.1056 0
M  V30 15 Pb -3.0508 1.4944 -5.4643 0
M  V30 16 Pd -7.7621 1.2253 0.8419 0
M  V30 17 Pb -8.0815 1.2929 -0.1020 0
M  V30 18 Pb -7.3178 1.1861 1.7379 0
M  V30 19 Pb -7.6524 0.2432 0.6918 0
M  V30 20 Pb -7.7836 2.2176 0.9594 0
M  V30 21 Pd -2.6566 -2.9614 -2.2808 0
M  V30 22 Pb -2.3327 -3.2176 -1.3685 0
M  V30 23 Pb -3.0018 -2.7570 -3.1988 0
M  V30 24 Pb -3.5839 -3.1213 -1.9440 0
M  V30 25 Pb -1.7377 -2.7014 -2.5833 0
M  V30 26 Pd -2.7859 5.5700 3.4883 0
M  V30 27 Pb -3.1976 4.7482 3.8860 0
M  V30 28 Pb -2.3740 6.3476 3.0175 0
M  V30 29 Pb -1.8610 5.3154 3.7721 0
M  V30 30 Pb -3.6958 5.7817 3.1329 0
M  V30 31 Pd 0.9268 5.9066 -2.5967 0
M  V30 32 Pb 1.8616 5.7914 -2.2590 0
M  V30 33 Pb 0.7525 6.6057 -1.9063 0
M  V30 34 Pb 1.0156 5.1524 -3.2509 0
M  V30 35 Pb -0.0101 6.0096 -2.9208 0
M  V30 36 Pd 4.9980 -2.2812 -1.3729 0
M  V30 37 Pb 4.2262 -1.9888 -1.9362 0
M  V30 38 Pb 5.7447 -2.6069 -0.7870 0
M  V30 39 Pb 4.6344 -3.2069 -1.4562 0
M  V30 40 Pb 5.3579 -1.3471 -1.3197 0
M  V30 41 Pd 5.4232 -4.5387 3.6162 0
M  V30 42 Pb 4.7576 -4.7980 4.3205 0
M  V30 43 Pb 5.2345 -3.5733 3.7854 0
M  V30 44 Pb 6.0618 -4.2838 2.8857 0
M  V30 45 Pb 5.5692 -5.5121 3.4410 0
M  V30 46 Ag 0.3624 -6.1055 2.3542 0
M  V30 47 Fe -0.8945 -4.7795 0.8348 0
M  V30 48 Ag -2.1563 -3.4469 -0.6748 0
M  V30 49 Ag -1.0725 -2.4417 -2.8188 0
M  V30 50 Fe 1.2724 -2.1337 -2.5908 0
M  V30 51 Ag 3.6175 -1.8392 -2.3472 0
M  V30 52 Ag -7.5220 -0.4711 0.5060 0
M  V30 53 Fe -5.9680 -1.9257 -0.5460 0
M  V30 54 Ag -4.2636 -3.1717 -1.6324 0
M  V30 55 Ag -6.9146 1.2482 2.3686 0
M  V30 56 Fe -5.2380 2.6002 3.3737 0
M  V30 57 Ag -3.5726 4.1329 4.0995 0
M  V30 58 Ag -2.3112 1.6318 -5.5059 0
M  V30 59 Fe -0.5746 3.0391 -4.6911 0
M  V30 60 Ag 0.9688 4.5726 -3.7289 0
M  V30 61 Ag -3.9759 3.1106 -4.9694 0
M  V30 62 Fe -2.4418 4.6865 -4.0866 0
M  V30 63 Ag -0.7109 6.0258 -3.1775 0
M  V30 64 Ag -7.7017 2.9514 1.0874 0
M  V30 65 Fe -6.1482 4.5304 1.9421 0
M  V30 66 Ag -4.3873 5.8391 2.8495 0
M  V30 67 Ag -5.7260 1.3525 -4.8689 0
M  V30 68 Fe -7.1011 1.3357 -2.9338 0
M  V30 69 Ag -8.2161 1.3139 -0.8381 0
M  V30 70 Ag 1.9935 -7.2107 0.8928 0
M  V30 71 Fe 3.1363 -5.6411 -0.4655 0
M  V30 72 Ag 4.3160 -3.8802 -1.5261 0
M  V30 73 Ag 3.0018 3.5251 2.2528 0
M  V30 74 Fe 0.9288 4.3377 3.0858 0
M  V30 75 Ag -1.1428 5.1538 3.9192 0
M  V30 76 Ag 4.2064 1.5198 2.2758 0
M  V30 77 Fe 4.6432 -0.6766 3.0624 0
M  V30 78 Ag 5.0709 -2.8534 3.9066 0
M  V30 79 Ag -2.0081 6.8642 2.6194 0
M  V30 80 Fe -0.7057 7.1366 0.6558 0
M  V30 81 Ag 0.5431 7.0709 -1.3597 0
M  V30 82 Ba 4.0974 4.1122 -0.0624 0
M  V30 83 Ga 3.2883 4.8948 -1.0190 0
M  V30 84 Ba 2.5623 5.7308 -1.9971 0
M  V30 85 Ba 3.2689 -7.9523 2.7701 0
M  V30 86 Ga 4.4932 -7.1810 3.0452 0
M  V30 87 Ba 5.6013 -6.2522 3.3264 0
M  V30 88 Ba 1.8905 -6.7149 4.2563 0
M  V30 89 Ga 3.0390 -5.8659 4.6261 0
M  V30 90 Ba 4.2371 -5.0251 4.8149 0
M  V30 91 Ba 5.1595 1.9686 -0.0309 0
M  V30 92 Ga 5.3725 0.6416 -0.6459 0
M  V30 93 Ba 5.6512 -0.6547 -1.2991 0
M  V30 94 Ba 6.3028 -2.8572 -0.3470 0
M  V30 95 Ga 6.4077 -3.4705 0.9953 0
M  V30 96 Ba 6.5358 -4.0850 2.3351 0
M  V30 97 Ba -3.9923 -0.3214 -5.5755 0
M  V30 98 Ga -3.6204 -1.4703 -4.7267 0
M  V30 99 Ba -3.2540 -2.6342 -3.8963 0
M  V30 END ATOM
M  V30 BEGIN BOND
M  V30 1 1 1 2
M  V30 2 1 1 3
M  V30 3 1 1 4
M  V30 4 1 1 5
M  V30 5 1 6 7
M  V30 6 1 6 8
M  V30 7 1 6 9
M  V30 8 1 6 10
M  V30 9 1 11 12
M  V30 10 1 11 13
M  V30 11 1 11 14
M  V30 12 1 11 15
M  V30 13 1 16 17
M  V30 14 1 16 18
M  V30 15 1 16 19
M  V30 16 1 16 20
M  V30 17 1 21 22
M  V30 18 1 21 23
M  V30 19 1 21 24
M  V30 20 1 21 25
M  V30 21 1 26 27
M  V30 22 1 26 28
M  V30 23 1 26 29
M  V30 24 1 26 30
M  V30 25 1 31 32
M  V30 26 1 31 33
M  V30 27 1 31 34
M  V30 28 1 31 35
M  V30 29 1 36 37
M  V30 30 1 36 38
M  V30 31 1 36 39
M  V30 32 1 36 40
M  V30 33 1 41 42
M  V30 34 1 41 43
M  V30 35 1 41 44
M  V30 36 1 41 45
M  V30 37 1 46 47
M  V30 38 1 47 48
M  V30 39 1 49 50
M  V30 40 1 50 51
M  V30 41 1 52 53
M  V30 42 1 53 54
M  V30 43 1 55 56
M  V30 44 1 56 57
M  V30 45 1 58 59
M  V30 46 1 59 60
M  V30 47 1 61 62
M  V30 48 1 62 63
M  V30 49 1 64 65
M  V30 50 1 65 66
M  V30 51 1 67 68
M  V30 52 1 68 69
M  V30 53 1 70 71
M  V30 54 1 71 72
M  V30 55 1 73 74
M  V30 56 1 74 75
M  V30 57 1 76 77
M  V30 58 1 77 78
M  V30 59 1 79 80
M  V30 60 1 80 81
M  V30 61 1 82 83
M  V30 62 1 83 84
M  V30 63 1 85 86
M  V30 64 1 86 87
M  V30 65 1 88 89
M  V30 66 1 89 90
M  V30 67 1 91 92
M  V30 68 1 92 93
M  V30 69 1 94 95
M  V30 70 1 95 96
M  V30 71 1 97 98
M  V30 72 1 98 99
M  V30 73 1 2 82
M  V30 74 1 3 76
M  V30 75 1 4 73
M  V30 76 1 5 91
M  V30 77 1 7 46
M  V30 78 1 8 88
M  V30 79 1 9 70
M  V30 80 1 10 85
M  V30 81 1 12 61
M  V30 82 1 13 97
M  V30 83 1 14 67
M  V30 84 1 15 58
M  V30 85 1 17 69
M  V30 86 1 18 55
M  V30 87 1 19 52
M  V30 88 1 20 64
M  V30 89 1 22 48
M  V30 90 1 23 99
M  V30 91 1 24 54
M  V30 92 1 25 49
M  V30 93 1 27 57
M  V30 94 1 28 79
M  V30 95 1 29 75
M  V30 96 1 30 66
M  V30 97 1 32 84
M  V30 98 1 33 81
M  V30 99 1 34 60
M  V30 100 1 35 63
M  V30 101 1 37 51
M  V30 102 1 38 94
M  V30 103 1 39 72
M  V30 104 1 40 93
M  V30 105 1 42 90
M  V30 106 1 43 78
M  V30 107 1 44 96
M  V30 108 1 45 87
M  V30 END BOND
M  V30 END CTAB
M  END

$$$$
