
     RDKit          3D

  0  0  0  0  0  0  0  0  0  0999 V3000
M  V30 BEGIN CTAB
M  V30 COUNTS 99 108 0 0 0
M  V30 BEGIN ATOM
M  V30 1 Pd -3.8403 -1.9945 -0.0764 0
M  V30 2 Pb -4.5496 -1.3138 0.0975 0
M  V30 3 Pb -3.1775 -1.4056 0.3890 0
M  V30 4 Pb -4.5047 -2.5017 -0.6252 0
M  V30 5 Pb -3.1111 -2.6417 -0.3097 0
M  V30 6 Pd 3.0859 -0.1794 6.5720 0
M  V30 7 Pb 3.8548 -0.0177 5.9487 0
M  V30 8 Pb 2.3129 -0.3744 7.1743 0
M  V30 9 Pb 3.4476 -1.0933 6.7346 0
M  V30 10 Pb 2.6424 0.6870 6.3355 0
M  V30 11 Pd 1.7977 5.0588 -2.7076 0
M  V30 12 Pb 1.0613 5.3350 -2.0935 0
M  V30 13 Pb 2.3916 4.8208 -1.9394 0
M  V30 14 Pb 2.5170 4.7426 -3.3249 0
M  V30 15 Pb 1.1566 5.2299 -3.4599 0
M  V30 16 Pd 2.6497 0.2557 -4.0882 0
M  V30 17 Pb 3.2342 1.0389 -4.2964 0
M  V30 18 Pb 2.0272 -0.5025 -3.8989 0
M  V30 19 Pb 3.4012 -0.2259 -3.6371 0
M  V30 20 Pb 1.8838 0.7147 -4.5371 0
M  V30 21 Pd 5.0703 -0.8253 1.0723 0
M  V30 22 Pb 5.2157 -0.6284 2.0480 0
M  V30 23 Pb 4.9084 0.1544 0.9417 0
M  V30 24 Pb 5.0405 -0.9892 0.0835 0
M  V30 25 Pb 5.2462 -1.8100 1.1738 0
M  V30 26 Pd -4.6005 -0.7022 -4.6466 0
M  V30 27 Pb -3.8133 -1.2592 -4.3827 0
M  V30 28 Pb -5.3591 -0.0991 -4.8978 0
M  V30 29 Pb -5.2005 -1.3750 -4.2133 0
M  V30 30 Pb -3.9530 -0.0446 -5.0283 0
M  V30 31 Pd -5.2971 4.1928 -3.2027 0
M  V30 32 Pb -5.8155 3.7503 -2.4750 0
M  V30 33 Pb -5.8270 3.6729 -3.8747 0
M  V30 34 Pb -4.6662 4.5514 -3.8934 0
M  V30 35 Pb -4.7289 4.6533 -2.5236 0
M  V30 36 Pd 2.3955 -5.5060 2.2077 0
M  V30 37 Pb 3.2938 -5.3111 1.8112 0
M  V30 38 Pb 1.4949 -5.5719 2.6340 0
M  V30 39 Pb 2.8333 -5.5170 3.1032 0
M  V30 40 Pb 1.9143 -5.4194 1.3365 0
M  V30 41 Pd -1.4053 -0.2936 4.9138 0
M  V30 42 Pb -1.2566 -0.4809 5.8820 0
M  V30 43 Pb -1.4801 -0.1160 3.9324 0
M  V30 44 Pb -1.7027 -1.2364 4.7751 0
M  V30 45 Pb -0.9670 0.5971 5.0477 0
M  V30 46 Ag -5.0612 -0.7716 0.1587 0
M  V30 47 Fe -5.7328 1.3043 -0.7707 0
M  V30 48 Ag -6.1119 3.3403 -1.9258 0
M  V30 49 Ag 1.4996 -1.0233 -3.7911 0
M  V30 50 Fe -0.8325 -1.4389 -3.9495 0
M  V30 51 Ag -3.1876 -1.6228 -4.1871 0
M  V30 52 Ag 0.6039 5.3329 -3.9614 0
M  V30 53 Fe -1.7428 5.1166 -4.2853 0
M  V30 54 Ag -4.0992 4.7938 -4.3243 0
M  V30 55 Ag 0.4507 5.5129 -1.7009 0
M  V30 56 Fe -1.9130 5.3209 -1.7342 0
M  V30 57 Ag -4.2358 4.9650 -2.0559 0
M  V30 58 Ag 1.2762 1.0128 -4.8586 0
M  V30 59 Fe -1.0726 0.8116 -5.1351 0
M  V30 60 Ag -3.4085 0.4113 -5.2646 0
M  V30 61 Ag 3.6613 -1.8073 6.7532 0
M  V30 62 Fe 3.5163 -3.7526 5.4090 0
M  V30 63 Ag 3.1469 -5.4272 3.7743 0
M  V30 64 Ag -2.5450 -3.0976 -0.5045 0
M  V30 65 Fe -0.5336 -4.2340 0.0525 0
M  V30 66 Ag 1.4645 -5.3172 0.7459 0
M  V30 67 Ag 0.8131 -5.5063 2.9353 0
M  V30 68 Fe -0.6475 -3.8669 3.8339 0
M  V30 69 Ag -1.8055 -1.9685 4.6608 0
M  V30 70 Ag 2.8333 4.5932 -1.3779 0
M  V30 71 Fe 3.8237 2.7545 -0.2452 0
M  V30 72 Ag 4.7987 0.8940 0.8650 0
M  V30 73 Ba 4.4617 0.0593 5.5097 0
M  V30 74 Ga 4.8655 -0.1958 4.1080 0
M  V30 75 Ba 5.4045 -0.4029 2.7446 0
M  V30 76 Ba 5.3952 -2.5508 1.1644 0
M  V30 77 Ga 4.6773 -3.8279 1.3771 0
M  V30 78 Ba 3.9850 -5.1198 1.5857 0
M  V30 79 Ba 3.9578 -0.6126 -3.3158 0
M  V30 80 Ga 4.4897 -0.8443 -1.9575 0
M  V30 81 Ba 5.1039 -1.1487 -0.6495 0
M  V30 82 Ba 2.2274 1.2851 6.1470 0
M  V30 83 Ga 0.8352 1.3280 5.6514 0
M  V30 84 Ba -0.5564 1.2161 5.1648 0
M  V30 85 Ba 1.7022 -0.5188 7.5831 0
M  V30 86 Ga 0.2921 -0.5814 7.1672 0
M  V30 87 Ba -1.0622 -0.6061 6.5924 0
M  V30 88 Ba 3.0654 4.4607 -3.7506 0
M  V30 89 Ga 3.3837 3.0732 -4.1322 0
M  V30 90 Ba 3.6227 1.6572 -4.4637 0
M  V30 91 Ba -5.0175 -2.7984 -1.0855 0
M  V30 92 Ga -5.3542 -2.4055 -2.4674 0
M  V30 93 Ba -5.5758 -1.9055 -3.8379 0
M  V30 94 Ba -2.6895 -0.9103 0.6737 0
M  V30 95 Ga -2.1180 -0.4835 1.9659 0
M  V30 96 Ba -1.4823 0.0273 3.1961 0
M  V30 97 Ba -5.8868 0.3996 -5.0910 0
M  V30 98 Ga -6.0835 1.8201 -4.7370 0
M  V30 99 Ba -6.2225 3.2367 -4.3418 0
M  V30 END ATOM
M  V30 BEGIN BOND
M  V30 1 1 1 2
M  V30 2 1 1 3
M  V30 3 1 1 4
M  V30 4 1 1 5
M  V30 5 1 6 7
M  V30 6 1 6 8
M  V30 7 1 6 9
M  V30 8 1 6 10
M  V30 9 1 11 12
M  V30 10 1 11 13
M  V30 11 1 11 14
M  V30 12 1 11 15
M  V30 13 1 16 17
M  V30 14 1 16 18
M  V30 15 1 16 19
M  V30 16 1 16 20
M  V30 17 1 21 22
M  V30 18 1 21 23
M  V30 19 1 21 24
M  V30 20 1 21 25
M  V30 21 1 26 27
M  V30 22 1 26 28
M  V30 23 1 26 29
M  V30 24 1 26 30
M  V30 25 1 31 32
M  V30 26 1 31 33
M  V30 27 1 31 34
M  V30 28 1 31 35
M  V30 29 1 36 37
M  V30 30 1 36 38
M  V30 31 1 36 39
M  V30 32 1 36 40
M  V30 33 1 41 42
M  V30 34 1 41 43
M  V30 35 1 41 44
M  V30 36 1 41 45
M  V30 37 1 46 47
M  V30 38 1 47 48
M  V30 39 1 49 50
M  V30 40 1 50 51
M  V30 41 1 52 53
M  V30 42 1 53 54
M  V30 43 1 55 56
M  V30 44 1 56 57
M  V30 45 1 58 59
M  V30 46 1 59 60
M  V30 47 1 61 62
M  V30 48 1 62 63
M  V30 49 1 64 65
M  V30 50 1 65 66
M  V30 51 1 67 68
M  V30 52 1 68 69
M  V30 53 1 70 71
M  V30 54 1 71 72
M  V30 55 1 73 74
M  V30 56 1 74 75
M  V30 57 1 76 77
M  V30 58 1 77 78
M  V30 59 1 79 80
M  V30 60 1 80 81
M  V30 61 1 82 83
M  V30 62 1 83 84
M  V30 63 1 85 86
M  V30 64 1 86 87
M  V30 65 1 88 89
M  V30 66 1 89 90
M  V30 67 1 91 92
M  V30 68 1 92 93
M  V30 69 1 94 95
M  V30 70 1 95 96
M  V30 71 1 97 98
M  V30 72 1 98 99
M  V30 73 1 2 46
M  V30 74 1 3 94
M  V30 75 1 4 91
M  V30 76 1 5 64
M  V30 77 1 7 73
M  V30 78 1 8 85
M  V30 79 1 9 61
M  V30 80 1 10 82
M  V30 81 1 12 55
M  V30 82 1 13 70
M  V30 83 1 14 88
M  V30 84 1 15 52
M  V30 85 1 17 90
M  V30 86 1 18 49
M  V30 87 1 19 79
M  V30 88 1 20 58
M  V30 89 1 22 75
M  V30 90 1 23 72
M  V30 91 1 24 81
M  V30 92 1 25 76
M  V30 93 1 27 51
M  V30 94 1 28 97
M  V30 95 1 29 93
M  V30 96 1 30 60
M  V30 97 1 32 48
M  V30 98 1 33 99
M  V30 99 1 34 54
M  V30 100 1 35 57
M  V30 101 1 37 78
M  V30 102 1 38 67
M  V30 103 1 39 63
M  V30 104 1 40 66
M  V30 105 1 42 87
M  V30 106 1 43 96
M  V30 107 1 44 69
M  V30 108 1 45 84
M  V30 END BOND
M  V30 END CTAB
M  END

$$$$
