
     RDKit          3D

  0  0  0  0  0  0  0  0  0  0999 V3000
M  V30 BEGIN CTAB
M  V30 COUNTS 99 108 0 0 0
M  V30 BEGIN ATOM
M  V30 1 Pd -3.7455 -2.8353 2.3031 0
M  V30 2 Pb -3.3732 -2.9672 3.2219 0
M  V30 3 Pb -3.8929 -1.8800 2.5520 0
M  V30 4 Pb -3.6326 -3.8068 2.0807 0
M  V30 5 Pb -4.1150 -2.6574 1.3891 0
M  V30 6 Pd -0.5581 7.5553 -3.0493 0
M  V30 7 Pb 0.3371 7.1723 -3.2843 0
M  V30 8 Pb -0.3586 7.5599 -2.0681 0
M  V30 9 Pb -0.9592 7.3678 -3.9410 0
M  V30 10 Pb -1.4481 7.9326 -2.8240 0
M  V30 11 Pd 6.1994 0.1043 2.3112 0
M  V30 12 Pb 5.9067 0.8290 2.9266 0
M  V30 13 Pb 6.2525 0.7470 1.5455 0
M  V30 14 Pb 6.4638 -0.6272 1.6841 0
M  V30 15 Pb 6.0977 -0.5592 3.0753 0
M  V30 16 Pd 3.3889 -5.0800 -2.3808 0
M  V30 17 Pb 4.2625 -4.6911 -2.0930 0
M  V30 18 Pb 3.5396 -5.8491 -1.7671 0
M  V30 19 Pb 3.2425 -4.3010 -2.9885 0
M  V30 20 Pb 2.4849 -5.4549 -2.6016 0
M  V30 21 Pd 2.5594 2.6680 -3.9083 0
M  V30 22 Pb 2.5032 3.6691 -3.8661 0
M  V30 23 Pb 3.4039 2.7123 -3.3720 0
M  V30 24 Pb 2.6549 1.6800 -4.0319 0
M  V30 25 Pb 1.6934 2.5781 -4.3990 0
M  V30 26 Pd 0.0064 -7.0362 0.9057 0
M  V30 27 Pb 0.9494 -7.3083 0.7313 0
M  V30 28 Pb 0.2278 -7.0491 1.8787 0
M  V30 29 Pb -0.9528 -6.8051 1.0859 0
M  V30 30 Pb -0.1349 -6.9598 -0.0833 0
M  V30 31 Pd 2.5552 -2.4126 6.2307 0
M  V30 32 Pb 1.5843 -2.4551 6.4574 0
M  V30 33 Pb 2.4678 -3.3816 6.0055 0
M  V30 34 Pb 3.5133 -2.3679 5.8963 0
M  V30 35 Pb 2.6082 -1.4436 6.4496 0
M  V30 36 Pd -5.0734 2.2730 -3.4456 0
M  V30 37 Pb -4.2791 2.0161 -3.9939 0
M  V30 38 Pb -5.8453 2.5630 -2.8709 0
M  V30 39 Pb -4.9613 3.1574 -3.9035 0
M  V30 40 Pb -5.1374 1.3587 -3.0387 0
M  V30 41 Pd -5.2629 4.8100 1.0903 0
M  V30 42 Pb -4.3966 5.2314 1.3784 0
M  V30 43 Pb -5.0919 4.0100 1.6614 0
M  V30 44 Pb -6.0469 4.3712 0.6506 0
M  V30 45 Pb -5.4171 5.6186 0.5364 0
M  V30 46 Ag -3.0872 -2.9889 3.9152 0
M  V30 47 Fe -1.1724 -2.7826 5.3037 0
M  V30 48 Ag 0.8463 -2.5535 6.5321 0
M  V30 49 Ag 1.0451 2.4107 -4.7368 0
M  V30 50 Fe -1.3127 2.1571 -4.6113 0
M  V30 51 Ag -3.6684 1.9277 -4.4191 0
M  V30 52 Ag 3.1488 -3.7126 -3.4420 0
M  V30 53 Fe 2.9286 -1.3700 -3.7632 0
M  V30 54 Ag 2.6992 0.9515 -4.2067 0
M  V30 55 Ag -2.1359 8.1369 -2.6366 0
M  V30 56 Fe -3.9482 7.3836 -1.3223 0
M  V30 57 Ag -5.4243 6.2270 0.1138 0
M  V30 58 Ag -0.3969 7.4739 -1.3211 0
M  V30 59 Fe -1.9450 6.5619 0.2418 0
M  V30 60 Ag -3.7237 5.5634 1.4712 0
M  V30 61 Ag 5.6007 1.2508 3.4536 0
M  V30 62 Fe 4.1080 0.6994 5.1928 0
M  V30 63 Ag 2.7459 -0.7166 6.4956 0
M  V30 64 Ag 6.6329 -1.1620 1.1875 0
M  V30 65 Fe 5.8303 -2.7934 -0.3384 0
M  V30 66 Ag 4.8926 -4.3874 -1.8263 0
M  V30 67 Ag -1.4509 7.1499 -4.4599 0
M  V30 68 Fe -3.1568 5.4994 -4.5670 0
M  V30 69 Ag -4.7448 3.7487 -4.3170 0
M  V30 70 Ag -4.3923 -2.4999 0.7082 0
M  V30 71 Fe -4.7864 -0.9127 -1.0177 0
M  V30 72 Ag -5.1867 0.6648 -2.7511 0
M  V30 73 Ag -4.0121 -1.1782 2.7825 0
M  V30 74 Fe -4.4833 1.1160 2.4022 0
M  V30 75 Ag -4.9514 3.4227 2.1024 0
M  V30 76 Ag 0.4881 -7.0188 2.5795 0
M  V30 77 Fe 1.4058 -5.6192 4.2624 0
M  V30 78 Ag 2.3058 -4.0945 5.8430 0
M  V30 79 Ag 6.2704 1.2019 0.9482 0
M  V30 80 Fe 5.1754 1.9979 -1.0050 0
M  V30 81 Ag 4.0187 2.7458 -2.9415 0
M  V30 82 Ba 1.0235 6.9191 -3.4561 0
M  V30 83 Ga 1.7266 5.6327 -3.6461 0
M  V30 84 Ba 2.5456 4.4215 -3.8627 0
M  V30 85 Ba 3.6196 -6.4181 -1.2926 0
M  V30 86 Ga 2.6701 -6.9983 -0.3340 0
M  V30 87 Ba 1.6549 -7.5120 0.5948 0
M  V30 88 Ba 6.0531 -1.0627 3.6518 0
M  V30 89 Ga 5.0878 -1.6631 4.6225 0
M  V30 90 Ba 4.2366 -2.3424 5.6465 0
M  V30 91 Ba 1.7989 -5.7439 -2.7186 0
M  V30 92 Ga 0.7870 -6.3165 -1.8038 0
M  V30 93 Ba -0.1761 -6.8756 -0.8298 0
M  V30 94 Ba -3.5964 -4.5415 1.9204 0
M  V30 95 Ga -2.5956 -5.5713 1.5682 0
M  V30 96 Ba -1.6846 -6.6799 1.2114 0
M  V30 97 Ba -6.4159 2.7398 -2.4088 0
M  V30 98 Ga -6.5287 3.3952 -1.0867 0
M  V30 99 Ba -6.5889 4.0597 0.2342 0
M  V30 END ATOM
M  V30 BEGIN BOND
M  V30 1 1 1 2
M  V30 2 1 1 3
M  V30 3 1 1 4
M  V30 4 1 1 5
M  V30 5 1 6 7
M  V30 6 1 6 8
M  V30 7 1 6 9
M  V30 8 1 6 10
M  V30 9 1 11 12
M  V30 10 1 11 13
M  V30 11 1 11 14
M  V30 12 1 11 15
M  V30 13 1 16 17
M  V30 14 1 16 18
M  V30 15 1 16 19
M  V30 16 1 16 20
M  V30 17 1 21 22
M  V30 18 1 21 23
M  V30 19 1 21 24
M  V30 20 1 21 25
M  V30 21 1 26 27
M  V30 22 1 26 28
M  V30 23 1 26 29
M  V30 24 1 26 30
M  V30 25 1 31 32
M  V30 26 1 31 33
M  V30 27 1 31 34
M  V30 28 1 31 35
M  V30 29 1 36 37
M  V30 30 1 36 38
M  V30 31 1 36 39
M  V30 32 1 36 40
M  V30 33 1 41 42
M  V30 34 1 41 43
M  V30 35 1 41 44
M  V30 36 1 41 45
M  V30 37 1 46 47
M  V30 38 1 47 48
M  V30 39 1 49 50
M  V30 40 1 50 51
M  V30 41 1 52 53
M  V30 42 1 53 54
M  V30 43 1 55 56
M  V30 44 1 56 57
M  V30 45 1 58 59
M  V30 46 1 59 60
M  V30 47 1 61 62
M  V30 48 1 62 63
M  V30 49 1 64 65
M  V30 50 1 65 66
M  V30 51 1 67 68
M  V30 52 1 68 69
M  V30 53 1 70 71
M  V30 54 1 71 72
M  V30 55 1 73 74
M  V30 56 1 74 75
M  V30 57 1 76 77
M  V30 58 1 77 78
M  V30 59 1 79 80
M  V30 60 1 80 81
M  V30 61 1 82 83
M  V30 62 1 83 84
M  V30 63 1 85 86
M  V30 64 1 86 87
M  V30 65 1 88 89
M  V30 66 1 89 90
M  V30 67 1 91 92
M  V30 68 1 92 93
M  V30 69 1 94 95
M  V30 70 1 95 96
M  V30 71 1 97 98
M  V30 72 1 98 99
M  V30 73 1 2 46
M  V30 74 1 3 73
M  V30 75 1 4 94
M  V30 76 1 5 70
M  V30 77 1 7 82
M  V30 78 1 8 58
M  V30 79 1 9 67
M  V30 80 1 10 55
M  V30 81 1 12 61
M  V30 82 1 13 79
M  V30 83 1 14 64
M  V30 84 1 15 88
M  V30 85 1 17 66
M  V30 86 1 18 85
M  V30 87 1 19 52
M  V30 88 1 20 91
M  V30 89 1 22 84
M  V30 90 1 23 81
M  V30 91 1 24 54
M  V30 92 1 25 49
M  V30 93 1 27 87
M  V30 94 1 28 76
M  V30 95 1 29 96
M  V30 96 1 30 93
M  V30 97 1 32 48
M  V30 98 1 33 78
M  V30 99 1 34 90
M  V30 100 1 35 63
M  V30 101 1 37 51
M  V30 102 1 38 97
M  V30 103 1 39 69
M  V30 104 1 40 72
M  V30 105 1 42 60
M  V30 106 1 43 75
M  V30 107 1 44 99
M  V30 108 1 45 57
M  V30 END BOND
M  V30 END CTAB
M  END

$$$$
