
     RDKit          3D

  0  0  0  0  0  0  0  0  0  0999 V3000
M  V30 BEGIN CTAB
M  V30 COUNTS 99 108 0 0 0
M  V30 BEGIN ATOM
M  V30 1 Pd -6.7080 0.0406 2.9013 0
M  V30 2 Pb -6.7748 1.0347 2.7851 0
M  V30 3 Pb -7.2864 -0.1446 2.1077 0
M  V30 4 Pb -6.0953 0.1916 3.6881 0
M  V30 5 Pb -6.5644 -0.9402 3.0077 0
M  V30 6 Pd 9.3326 1.9153 0.1349 0
M  V30 7 Pb 8.8141 2.4561 0.7918 0
M  V30 8 Pb 9.6474 1.2417 -0.5270 0
M  V30 9 Pb 8.9272 2.4174 -0.6299 0
M  V30 10 Pb 9.5461 1.2870 0.8821 0
M  V30 11 Pd 4.2508 -1.4034 2.9374 0
M  V30 12 Pb 4.4704 -0.4377 3.0785 0
M  V30 13 Pb 3.3604 -1.1594 2.5644 0
M  V30 14 Pb 5.1952 -1.5961 3.2054 0
M  V30 15 Pb 4.0528 -2.3671 2.7505 0
M  V30 16 Pd -1.2793 -0.0143 4.0012 0
M  V30 17 Pb -0.5485 -0.1352 3.3353 0
M  V30 18 Pb -2.1045 0.1183 4.5604 0
M  V30 19 Pb -1.4604 -0.9947 3.9980 0
M  V30 20 Pb -1.1595 0.9771 3.9873 0
M  V30 21 Pd -3.3806 4.0755 0.9687 0
M  V30 22 Pb -2.5333 4.1922 0.4423 0
M  V30 23 Pb -2.8301 3.9300 1.7931 0
M  V30 24 Pb -4.2471 3.9562 1.4652 0
M  V30 25 Pb -3.8994 4.2825 0.1417 0
M  V30 26 Pd 1.2954 -4.1570 -0.8711 0
M  V30 27 Pb 1.8794 -4.3277 -0.0719 0
M  V30 28 Pb 0.4646 -4.1053 -0.3032 0
M  V30 29 Pb 2.0740 -4.2325 -1.4989 0
M  V30 30 Pb 0.7015 -4.0260 -1.6576 0
M  V30 31 Pd 4.6511 -0.9547 -4.0634 0
M  V30 32 Pb 5.6002 -1.1813 -3.8461 0
M  V30 33 Pb 4.9536 0.0003 -4.0901 0
M  V30 34 Pb 3.7206 -0.7069 -4.3444 0
M  V30 35 Pb 4.3970 -1.9171 -3.9443 0
M  V30 36 Pd -5.7524 -2.3798 -1.8937 0
M  V30 37 Pb -5.2834 -2.7725 -1.0964 0
M  V30 38 Pb -6.5334 -2.0380 -1.3661 0
M  V30 39 Pb -4.9716 -2.6757 -2.4343 0
M  V30 40 Pb -6.0745 -1.9019 -2.7068 0
M  V30 41 Pd -2.2832 2.9765 -3.9800 0
M  V30 42 Pb -3.0140 3.5447 -3.6076 0
M  V30 43 Pb -2.9758 2.5171 -4.5328 0
M  V30 44 Pb -1.6481 3.3936 -3.3290 0
M  V30 45 Pb -1.5738 2.3603 -4.3306 0
M  V30 46 Ag 8.5273 2.6638 -1.2161 0
M  V30 47 Fe 6.8809 1.8483 -2.7249 0
M  V30 48 Ag 5.2712 0.6795 -4.0270 0
M  V30 49 Ag 8.3082 2.6956 1.2852 0
M  V30 50 Fe 6.4408 1.6952 2.3518 0
M  V30 51 Ag 4.7191 0.2668 3.1413 0
M  V30 52 Ag 9.5369 0.7707 1.4251 0
M  V30 53 Fe 7.9002 -0.5493 2.5287 0
M  V30 54 Ag 5.9355 -1.6191 3.3256 0
M  V30 55 Ag 3.0382 -0.5217 -4.6038 0
M  V30 56 Fe 1.0007 0.7039 -4.5476 0
M  V30 57 Ag -1.0740 1.8656 -4.6000 0
M  V30 58 Ag 0.2035 -3.9420 -2.2036 0
M  V30 59 Fe -2.0644 -3.4206 -2.6390 0
M  V30 60 Ag -4.3604 -2.8697 -2.8124 0
M  V30 61 Ag -6.2755 -1.6170 3.1074 0
M  V30 62 Fe -4.0376 -2.1991 3.5673 0
M  V30 63 Ag -1.7763 -1.6661 3.9689 0
M  V30 64 Ag -0.2056 -4.0757 0.0501 0
M  V30 65 Fe -2.5289 -3.5810 -0.1563 0
M  V30 66 Ag -4.8130 -3.0318 -0.5638 0
M  V30 67 Ag 9.6935 0.6955 -1.0320 0
M  V30 68 Fe 8.1602 -0.4260 -2.4511 0
M  V30 69 Ag 6.3292 -1.2734 -3.6982 0
M  V30 70 Ag -6.1510 -1.4830 -3.3194 0
M  V30 71 Fe -5.0008 0.3460 -4.2942 0
M  V30 72 Ag -3.5487 2.1410 -4.8317 0
M  V30 73 Ba -1.1213 1.7251 3.9883 0
M  V30 74 Ga -1.7525 2.7864 3.1798 0
M  V30 75 Ba -2.3728 3.8654 2.3868 0
M  V30 76 Ba -5.6434 0.2886 4.2896 0
M  V30 77 Ga -4.1910 0.2551 4.5968 0
M  V30 78 Ba -2.7471 0.2304 4.9428 0
M  V30 79 Ba -7.7037 -0.3368 1.5155 0
M  V30 80 Ga -7.4129 -1.0423 0.2513 0
M  V30 81 Ba -7.1330 -1.7483 -1.0151 0
M  V30 82 Ba 2.7277 -0.9622 2.2217 0
M  V30 83 Ga 1.3433 -0.6005 2.5594 0
M  V30 84 Ba -0.0610 -0.2240 2.7771 0
M  V30 85 Ba -6.7826 1.7863 2.7334 0
M  V30 86 Ga -5.8382 2.8229 2.2560 0
M  V30 87 Ba -4.9256 3.8938 1.7927 0
M  V30 88 Ba -4.2541 4.4640 -0.4913 0
M  V30 89 Ga -3.9445 4.2164 -1.9087 0
M  V30 90 Ba -3.5772 3.9329 -3.3054 0
M  V30 91 Ba 3.8941 -3.0838 2.5891 0
M  V30 92 Ga 3.0966 -3.7696 1.5493 0
M  V30 93 Ba 2.3093 -4.4910 0.5260 0
M  V30 94 Ba -1.9065 4.2809 0.0322 0
M  V30 95 Ga -1.5397 3.9987 -1.3725 0
M  V30 96 Ba -1.2266 3.6956 -2.7858 0
M  V30 97 Ba 2.6095 -4.3170 -2.0219 0
M  V30 98 Ga 3.4249 -3.4556 -2.9057 0
M  V30 99 Ba 4.2666 -2.6471 -3.8144 0
M  V30 END ATOM
M  V30 BEGIN BOND
M  V30 1 1 1 2
M  V30 2 1 1 3
M  V30 3 1 1 4
M  V30 4 1 1 5
M  V30 5 1 6 7
M  V30 6 1 6 8
M  V30 7 1 6 9
M  V30 8 1 6 10
M  V30 9 1 11 12
M  V30 10 1 11 13
M  V30 11 1 11 14
M  V30 12 1 11 15
M  V30 13 1 16 17
M  V30 14 1 16 18
M  V30 15 1 16 19
M  V30 16 1 16 20
M  V30 17 1 21 22
M  V30 18 1 21 23
M  V30 19 1 21 24
M  V30 20 1 21 25
M  V30 21 1 26 27
M  V30 22 1 26 28
M  V30 23 1 26 29
M  V30 24 1 26 30
M  V30 25 1 31 32
M  V30 26 1 31 33
M  V30 27 1 31 34
M  V30 28 1 31 35
M  V30 29 1 36 37
M  V30 30 1 36 38
M  V30 31 1 36 39
M  V30 32 1 36 40
M  V30 33 1 41 42
M  V30 34 1 41 43
M  V30 35 1 41 44
M  V30 36 1 41 45
M  V30 37 1 46 47
M  V30 38 1 47 48
M  V30 39 1 49 50
M  V30 40 1 50 51
M  V30 41 1 52 53
M  V30 42 1 53 54
M  V30 43 1 55 56
M  V30 44 1 56 57
M  V30 45 1 58 59
M  V30 46 1 59 60
M  V30 47 1 61 62
M  V30 48 1 62 63
M  V30 49 1 64 65
M  V30 50 1 65 66
M  V30 51 1 67 68
M  V30 52 1 68 69
M  V30 53 1 70 71
M  V30 54 1 71 72
M  V30 55 1 73 74
M  V30 56 1 74 75
M  V30 57 1 76 77
M  V30 58 1 77 78
M  V30 59 1 79 80
M  V30 60 1 80 81
M  V30 61 1 82 83
M  V30 62 1 83 84
M  V30 63 1 85 86
M  V30 64 1 86 87
M  V30 65 1 88 89
M  V30 66 1 89 90
M  V30 67 1 91 92
M  V30 68 1 92 93
M  V30 69 1 94 95
M  V30 70 1 95 96
M  V30 71 1 97 98
M  V30 72 1 98 99
M  V30 73 1 2 85
M  V30 74 1 3 79
M  V30 75 1 4 76
M  V30 76 1 5 61
M  V30 77 1 7 49
M  V30 78 1 8 67
M  V30 79 1 9 46
M  V30 80 1 10 52
M  V30 81 1 12 51
M  V30 82 1 13 82
M  V30 83 1 14 54
M  V30 84 1 15 91
M  V30 85 1 17 84
M  V30 86 1 18 78
M  V30 87 1 19 63
M  V30 88 1 20 73
M  V30 89 1 22 94
M  V30 90 1 23 75
M  V30 91 1 24 87
M  V30 92 1 25 88
M  V30 93 1 27 93
M  V30 94 1 28 64
M  V30 95 1 29 97
M  V30 96 1 30 58
M  V30 97 1 32 69
M  V30 98 1 33 48
M  V30 99 1 34 55
M  V30 100 1 35 99
M  V30 101 1 37 66
M  V30 102 1 38 81
M  V30 103 1 39 60
M  V30 104 1 40 70
M  V30 105 1 42 90
M  V30 106 1 43 72
M  V30 107 1 44 96
M  V30 108 1 45 57
M  V30 END BOND
M  V30 END CTAB
M  END

$$$$
