
     RDKit          3D

  0  0  0  0  0  0  0  0  0  0999 V3000
M  V30 BEGIN CTAB
M  V30 COUNTS 99 108 0 0 0
M  V30 BEGIN ATOM
M  V30 1 Pd -0.5301 4.1869 5.7231 0
M  V30 2 Pb -0.2087 3.2384 5.7448 0
M  V30 3 Pb -0.8174 5.1448 5.6891 0
M  V30 4 Pb 0.2117 4.4593 6.3349 0
M  V30 5 Pb -1.2380 3.9575 5.0567 0
M  V30 6 Pd 2.4539 7.6193 4.3177 0
M  V30 7 Pb 2.2907 7.9425 3.3855 0
M  V30 8 Pb 2.5793 7.2159 5.2234 0
M  V30 9 Pb 1.5437 7.9145 4.6005 0
M  V30 10 Pb 3.3106 7.2145 4.0085 0
M  V30 11 Pd -3.6560 -3.9679 1.6329 0
M  V30 12 Pb -2.8060 -4.3103 2.0200 0
M  V30 13 Pb -4.3895 -3.5153 1.1347 0
M  V30 14 Pb -3.7683 -4.8141 1.1087 0
M  V30 15 Pb -3.5170 -3.1036 2.1183 0
M  V30 16 Pd -1.1947 -7.9651 -4.4080 0
M  V30 17 Pb -1.8809 -7.5060 -4.9739 0
M  V30 18 Pb -0.4198 -8.2477 -3.8468 0
M  V30 19 Pb -0.5553 -7.8969 -5.1684 0
M  V30 20 Pb -1.8178 -7.9745 -3.6239 0
M  V30 21 Pd 0.2630 0.0802 2.1401 0
M  V30 22 Pb 0.1150 -0.0571 1.1614 0
M  V30 23 Pb 1.1951 0.3368 1.8864 0
M  V30 24 Pb -0.6780 -0.1662 2.3851 0
M  V30 25 Pb 0.4374 0.2371 3.1132 0
M  V30 26 Pd 2.6184 4.6389 0.2898 0
M  V30 27 Pb 2.3930 5.6141 0.2729 0
M  V30 28 Pb 1.9171 4.4713 -0.4095 0
M  V30 29 Pb 3.3489 4.8448 0.9422 0
M  V30 30 Pb 2.8561 3.6697 0.3641 0
M  V30 31 Pd 2.5054 -3.2098 -1.6616 0
M  V30 32 Pb 1.9669 -2.3669 -1.5950 0
M  V30 33 Pb 2.7640 -2.9630 -2.5987 0
M  V30 34 Pb 2.2193 -3.4834 -0.7455 0
M  V30 35 Pb 2.8797 -4.1302 -1.7570 0
M  V30 36 Pd -2.4695 2.1660 -1.5919 0
M  V30 37 Pb -2.3275 1.7959 -2.5102 0
M  V30 38 Pb -3.2458 1.5462 -1.4744 0
M  V30 39 Pb -2.6347 2.5002 -0.6637 0
M  V30 40 Pb -1.6927 2.7862 -1.7319 0
M  V30 41 Pd -0.0455 -3.6072 -6.3102 0
M  V30 42 Pb 0.3899 -4.4694 -6.5605 0
M  V30 43 Pb -0.9356 -4.0508 -6.4527 0
M  V30 44 Pb 0.8493 -3.2130 -6.0929 0
M  V30 45 Pb -0.4812 -2.7280 -6.1117 0
M  V30 46 Ag -3.8240 -5.4448 0.7034 0
M  V30 47 Fe -3.0780 -6.7243 -1.1558 0
M  V30 48 Ag -2.2817 -7.9457 -3.0331 0
M  V30 49 Ag -2.2373 1.5010 -3.1941 0
M  V30 50 Fe -1.5080 -0.2867 -4.5785 0
M  V30 51 Ag -0.7913 -2.0539 -5.9953 0
M  V30 52 Ag -1.7536 3.8289 4.5289 0
M  V30 53 Fe -2.2621 3.2608 2.2798 0
M  V30 54 Ag -2.8101 2.6985 0.0386 0
M  V30 55 Ag -2.0998 -4.4636 2.1981 0
M  V30 56 Fe 0.0345 -4.1797 1.2087 0
M  V30 57 Ag 1.9681 -3.7372 -0.0884 0
M  V30 58 Ag 0.2307 -8.2952 -3.4819 0
M  V30 59 Fe 1.8019 -6.7724 -2.5671 0
M  V30 60 Ag 2.9943 -4.8675 -1.8091 0
M  V30 61 Ag -4.8107 -3.0526 0.7295 0
M  V30 62 Fe -4.4920 -0.9830 -0.3846 0
M  V30 63 Ag -3.8114 1.0645 -1.3710 0
M  V30 64 Ba 3.9007 6.8478 3.7345 0
M  V30 65 Ga 3.9555 5.9312 2.5826 0
M  V30 66 Ba 3.9000 5.0334 1.4158 0
M  V30 67 Ba -0.9798 5.8768 5.6550 0
M  V30 68 Ga -0.1332 7.0135 5.2522 0
M  V30 69 Ba 0.8393 8.0329 4.8213 0
M  V30 70 Ba 2.9374 -2.7680 -3.3049 0
M  V30 71 Ga 2.2395 -2.8490 -4.6058 0
M  V30 72 Ba 1.5217 -2.9412 -5.8950 0
M  V30 73 Ba -0.0603 -7.7744 -5.7122 0
M  V30 74 Ga 0.3574 -6.4862 -6.2819 0
M  V30 75 Ba 0.6754 -5.1322 -6.7557 0
M  V30 76 Ba 0.7845 4.7222 6.7400 0
M  V30 77 Ga 1.7423 5.7849 6.3863 0
M  V30 78 Ba 2.6141 6.8606 5.8821 0
M  V30 79 Ba 1.8749 0.5204 1.6288 0
M  V30 80 Ga 2.4704 1.7427 1.0550 0
M  V30 81 Ba 3.0737 2.9601 0.4791 0
M  V30 82 Ba 2.1685 8.1202 2.6670 0
M  V30 83 Ga 2.1919 7.2760 1.4567 0
M  V30 84 Ba 2.2404 6.3485 0.3097 0
M  V30 85 Ba 1.4224 4.4206 -0.9766 0
M  V30 86 Ga 0.1416 3.7901 -1.3660 0
M  V30 87 Ba -1.1220 3.2450 -1.9100 0
M  V30 88 Ba 0.0867 -0.1203 0.4148 0
M  V30 89 Ga 0.7912 -0.9615 -0.5744 0
M  V30 90 Ba 1.4854 -1.7882 -1.5828 0
M  V30 91 Ba -3.4287 -2.4389 2.4563 0
M  V30 92 Ga -2.3798 -1.3998 2.5197 0
M  V30 93 Ba -1.3748 -0.3216 2.6250 0
M  V30 94 Ba 0.0587 2.5364 5.7695 0
M  V30 95 Ga 0.2970 1.4485 4.7995 0
M  V30 96 Ba 0.5445 0.3461 3.8485 0
M  V30 97 Ba -2.3171 -7.0731 -5.4072 0
M  V30 98 Ga -2.0057 -5.7501 -5.9943 0
M  V30 99 Ba -1.5812 -4.4352 -6.5265 0
M  V30 END ATOM
M  V30 BEGIN BOND
M  V30 1 1 1 2
M  V30 2 1 1 3
M  V30 3 1 1 4
M  V30 4 1 1 5
M  V30 5 1 6 7
M  V30 6 1 6 8
M  V30 7 1 6 9
M  V30 8 1 6 10
M  V30 9 1 11 12
M  V30 10 1 11 13
M  V30 11 1 11 14
M  V30 12 1 11 15
M  V30 13 1 16 17
M  V30 14 1 16 18
M  V30 15 1 16 19
M  V30 16 1 16 20
M  V30 17 1 21 22
M  V30 18 1 21 23
M  V30 19 1 21 24
M  V30 20 1 21 25
M  V30 21 1 26 27
M  V30 22 1 26 28
M  V30 23 1 26 29
M  V30 24 1 26 30
M  V30 25 1 31 32
M  V30 26 1 31 33
M  V30 27 1 31 34
M  V30 28 1 31 35
M  V30 29 1 36 37
M  V30 30 1 36 38
M  V30 31 1 36 39
M  V30 32 1 36 40
M  V30 33 1 41 42
M  V30 34 1 41 43
M  V30 35 1 41 44
M  V30 36 1 41 45
M  V30 37 1 46 47
M  V30 38 1 47 48
M  V30 39 1 49 50
M  V30 40 1 50 51
M  V30 41 1 52 53
M  V30 42 1 53 54
M  V30 43 1 55 56
M  V30 44 1 56 57
M  V30 45 1 58 59
M  V30 46 1 59 60
M  V30 47 1 61 62
M  V30 48 1 62 63
M  V30 49 1 64 65
M  V30 50 1 65 66
M  V30 51 1 67 68
M  V30 52 1 68 69
M  V30 53 1 70 71
M  V30 54 1 71 72
M  V30 55 1 73 74
M  V30 56 1 74 75
M  V30 57 1 76 77
M  V30 58 1 77 78
M  V30 59 1 79 80
M  V30 60 1 80 81
M  V30 61 1 82 83
M  V30 62 1 83 84
M  V30 63 1 85 86
M  V30 64 1 86 87
M  V30 65 1 88 89
M  V30 66 1 89 90
M  V30 67 1 91 92
M  V30 68 1 92 93
M  V30 69 1 94 95
M  V30 70 1 95 96
M  V30 71 1 97 98
M  V30 72 1 98 99
M  V30 73 1 2 94
M  V30 74 1 3 67
M  V30 75 1 4 76
M  V30 76 1 5 52
M  V30 77 1 7 82
M  V30 78 1 8 78
M  V30 79 1 9 69
M  V30 80 1 10 64
M  V30 81 1 12 55
M  V30 82 1 13 61
M  V30 83 1 14 46
M  V30 84 1 15 91
M  V30 85 1 17 97
M  V30 86 1 18 58
M  V30 87 1 19 73
M  V30 88 1 20 48
M  V30 89 1 22 88
M  V30 90 1 23 79
M  V30 91 1 24 93
M  V30 92 1 25 96
M  V30 93 1 27 84
M  V30 94 1 28 85
M  V30 95 1 29 66
M  V30 96 1 30 81
M  V30 97 1 32 90
M  V30 98 1 33 70
M  V30 99 1 34 57
M  V30 100 1 35 60
M  V30 101 1 37 49
M  V30 102 1 38 63
M  V30 103 1 39 54
M  V30 104 1 40 87
M  V30 105 1 42 75
M  V30 106 1 43 99
M  V30 107 1 44 72
M  V30 108 1 45 51
M  V30 END BOND
M  V30 END CTAB
M  END

$$$$
