
     RDKit          3D

  0  0  0  0  0  0  0  0  0  0999 V3000
M  V30 BEGIN CTAB
M  V30 COUNTS 99 108 0 0 0
M  V30 BEGIN ATOM
M  V30 1 Pd 7.4178 2.2454 -6.5096 0
M  V30 2 Pb 7.4749 2.9349 -5.7676 0
M  V30 3 Pb 7.2587 1.4775 -7.1277 0
M  V30 4 Pb 8.2069 1.7800 -6.1224 0
M  V30 5 Pb 6.6093 2.6887 -6.8952 0
M  V30 6 Pd -8.5812 -0.1408 1.6943 0
M  V30 7 Pb -8.7815 -1.0311 2.1050 0
M  V30 8 Pb -8.6321 0.2647 2.6051 0
M  V30 9 Pb -8.2618 0.7247 1.3099 0
M  V30 10 Pb -8.4897 -0.5460 0.7845 0
M  V30 11 Pd 2.0738 -3.2900 0.7157 0
M  V30 12 Pb 1.8689 -3.5262 1.6693 0
M  V30 13 Pb 1.2037 -3.6716 0.4174 0
M  V30 14 Pb 2.8843 -2.7904 1.0187 0
M  V30 15 Pb 2.2984 -3.1500 -0.2536 0
M  V30 16 Pd -4.3772 -0.0951 -0.6012 0
M  V30 17 Pb -5.1723 -0.4567 -1.0850 0
M  V30 18 Pb -3.6264 0.2224 -0.0170 0
M  V30 19 Pb -3.9156 -0.9750 -0.6966 0
M  V30 20 Pb -4.8833 0.7569 -0.4630 0
M  V30 21 Pd 6.5512 2.6290 -0.8302 0
M  V30 22 Pb 6.2921 2.0031 -0.0962 0
M  V30 23 Pb 7.3865 2.1020 -0.9476 0
M  V30 24 Pb 5.7222 3.1805 -0.7080 0
M  V30 25 Pb 6.8097 3.1858 -1.6405 0
M  V30 26 Pd 0.8833 2.6001 0.4235 0
M  V30 27 Pb 1.2014 2.5210 1.3656 0
M  V30 28 Pb 0.5757 2.5981 -0.5245 0
M  V30 29 Pb 1.6736 3.1646 0.1731 0
M  V30 30 Pb 0.0811 2.0693 0.7059 0
M  V30 31 Pd -0.8854 -2.1362 5.6155 0
M  V30 32 Pb -0.2406 -2.7562 5.1637 0
M  V30 33 Pb -1.5162 -1.5262 6.0935 0
M  V30 34 Pb -1.5675 -2.8671 5.6817 0
M  V30 35 Pb -0.2374 -1.3823 5.5152 0
M  V30 36 Pd 3.0615 0.1575 -6.3650 0
M  V30 37 Pb 3.1793 1.0138 -6.8641 0
M  V30 38 Pb 3.0064 -0.6633 -5.7924 0
M  V30 39 Pb 2.3104 0.5710 -5.8551 0
M  V30 40 Pb 3.8290 -0.2187 -6.8880 0
M  V30 41 Pd -6.1604 -1.8892 5.7389 0
M  V30 42 Pb -5.4697 -1.3622 6.2312 0
M  V30 43 Pb -6.8515 -2.3895 5.2127 0
M  V30 44 Pb -5.5431 -2.6786 5.7489 0
M  V30 45 Pb -6.7603 -1.0908 5.7174 0
M  V30 46 Ag 8.7179 1.4622 -5.6913 0
M  V30 47 Fe 8.8088 1.3219 -3.3430 0
M  V30 48 Ag 7.9902 1.7380 -1.1750 0
M  V30 49 Ag 1.3861 2.3659 2.0730 0
M  V30 50 Fe 0.8958 0.8458 3.8273 0
M  V30 51 Ag 0.2162 -0.7981 5.3975 0
M  V30 52 Ag 2.4388 -3.1357 -0.9953 0
M  V30 53 Fe 2.7041 -2.1459 -3.1426 0
M  V30 54 Ag 2.9928 -1.2576 -5.3310 0
M  V30 55 Ag 0.5228 -3.8475 0.1696 0
M  V30 56 Fe -1.5745 -2.8546 -0.3176 0
M  V30 57 Ag -3.5670 -1.6363 -0.7275 0
M  V30 58 Ag 3.4399 -2.3511 1.2637 0
M  V30 59 Fe 4.8084 -0.4485 0.8838 0
M  V30 60 Ag 6.1241 1.4676 0.4000 0
M  V30 61 Ag 0.3760 2.5424 -1.2416 0
M  V30 62 Fe 1.0088 1.7511 -3.3856 0
M  V30 63 Ag 1.7678 0.9112 -5.4694 0
M  V30 64 Ba 7.0528 0.8721 -7.5174 0
M  V30 65 Ga 5.7585 0.1655 -7.4578 0
M  V30 66 Ba 4.4206 -0.4372 -7.2979 0
M  V30 67 Ba 5.1275 3.6364 -0.6334 0
M  V30 68 Ga 3.6853 3.5720 -0.3136 0
M  V30 69 Ba 2.2397 3.6269 -0.0076 0
M  V30 70 Ba -1.9952 -1.0844 6.4632 0
M  V30 71 Ga -3.4649 -1.0092 6.5338 0
M  V30 72 Ba -4.9369 -0.9660 6.5770 0
M  V30 73 Ba -8.3655 -0.8115 0.0942 0
M  V30 74 Ga -7.1243 -0.8078 -0.7003 0
M  V30 75 Ba -5.8107 -0.7306 -1.3634 0
M  V30 76 Ba -3.1010 0.4010 0.4916 0
M  V30 77 Ga -1.7925 1.0691 0.6524 0
M  V30 78 Ba -0.4974 1.6898 1.0016 0
M  V30 79 Ba -7.9389 1.3312 1.0107 0
M  V30 80 Ga -6.6383 1.4225 0.3211 0
M  V30 81 Ba -5.3235 1.3529 -0.3435 0
M  V30 82 Ba 1.7530 -3.7690 2.3731 0
M  V30 83 Ga 0.9756 -3.4493 3.5893 0
M  V30 84 Ba 0.2548 -3.2352 4.8624 0
M  V30 85 Ba -2.1038 -3.3930 5.7207 0
M  V30 86 Ga -3.5809 -3.3402 5.7437 0
M  V30 87 Ba -5.0563 -3.2520 5.7648 0
M  V30 88 Ba -8.6387 0.5328 3.3035 0
M  V30 89 Ga -7.9491 0.0576 4.5146 0
M  V30 90 Ba -7.2159 -0.4990 5.6639 0
M  V30 91 Ba -8.8629 -1.6912 2.4540 0
M  V30 92 Ga -8.1518 -2.2466 3.6244 0
M  V30 93 Ba -7.3882 -2.7170 4.7991 0
M  V30 94 Ba 7.4985 3.4375 -5.1914 0
M  V30 95 Ga 7.2452 3.4717 -3.7182 0
M  V30 96 Ba 7.0165 3.6065 -2.2469 0
M  V30 97 Ba 5.9787 2.9621 -7.1935 0
M  V30 98 Ga 4.6284 2.3758 -7.2338 0
M  V30 99 Ba 3.3381 1.6673 -7.1917 0
M  V30 END ATOM
M  V30 BEGIN BOND
M  V30 1 1 1 2
M  V30 2 1 1 3
M  V30 3 1 1 4
M  V30 4 1 1 5
M  V30 5 1 6 7
M  V30 6 1 6 8
M  V30 7 1 6 9
M  V30 8 1 6 10
M  V30 9 1 11 12
M  V30 10 1 11 13
M  V30 11 1 11 14
M  V30 12 1 11 15
M  V30 13 1 16 17
M  V30 14 1 16 18
M  V30 15 1 16 19
M  V30 16 1 16 20
M  V30 17 1 21 22
M  V30 18 1 21 23
M  V30 19 1 21 24
M  V30 20 1 21 25
M  V30 21 1 26 27
M  V30 22 1 26 28
M  V30 23 1 26 29
M  V30 24 1 26 30
M  V30 25 1 31 32
M  V30 26 1 31 33
M  V30 27 1 31 34
M  V30 28 1 31 35
M  V30 29 1 36 37
M  V30 30 1 36 38
M  V30 31 1 36 39
M  V30 32 1 36 40
M  V30 33 1 41 42
M  V30 34 1 41 43
M  V30 35 1 41 44
M  V30 36 1 41 45
M  V30 37 1 46 47
M  V30 38 1 47 48
M  V30 39 1 49 50
M  V30 40 1 50 51
M  V30 41 1 52 53
M  V30 42 1 53 54
M  V30 43 1 55 56
M  V30 44 1 56 57
M  V30 45 1 58 59
M  V30 46 1 59 60
M  V30 47 1 61 62
M  V30 48 1 62 63
M  V30 49 1 64 65
M  V30 50 1 65 66
M  V30 51 1 67 68
M  V30 52 1 68 69
M  V30 53 1 70 71
M  V30 54 1 71 72
M  V30 55 1 73 74
M  V30 56 1 74 75
M  V30 57 1 76 77
M  V30 58 1 77 78
M  V30 59 1 79 80
M  V30 60 1 80 81
M  V30 61 1 82 83
M  V30 62 1 83 84
M  V30 63 1 85 86
M  V30 64 1 86 87
M  V30 65 1 88 89
M  V30 66 1 89 90
M  V30 67 1 91 92
M  V30 68 1 92 93
M  V30 69 1 94 95
M  V30 70 1 95 96
M  V30 71 1 97 98
M  V30 72 1 98 99
M  V30 73 1 2 94
M  V30 74 1 3 64
M  V30 75 1 4 46
M  V30 76 1 5 97
M  V30 77 1 7 91
M  V30 78 1 8 88
M  V30 79 1 9 79
M  V30 80 1 10 73
M  V30 81 1 12 82
M  V30 82 1 13 55
M  V30 83 1 14 58
M  V30 84 1 15 52
M  V30 85 1 17 75
M  V30 86 1 18 76
M  V30 87 1 19 57
M  V30 88 1 20 81
M  V30 89 1 22 60
M  V30 90 1 23 48
M  V30 91 1 24 67
M  V30 92 1 25 96
M  V30 93 1 27 49
M  V30 94 1 28 61
M  V30 95 1 29 69
M  V30 96 1 30 78
M  V30 97 1 32 84
M  V30 98 1 33 70
M  V30 99 1 34 85
M  V30 100 1 35 51
M  V30 101 1 37 99
M  V30 102 1 38 54
M  V30 103 1 39 63
M  V30 104 1 40 66
M  V30 105 1 42 72
M  V30 106 1 43 93
M  V30 107 1 44 87
M  V30 108 1 45 90
M  V30 END BOND
M  V30 END CTAB
M  END

$$$$
