
     RDKit          3D

  0  0  0  0  0  0  0  0  0  0999 V3000
M  V30 BEGIN CTAB
M  V30 COUNTS 99 108 0 0 0
M  V30 BEGIN ATOM
M  V30 1 Pd -3.2722 -1.4094 -2.7097 0
M  V30 2 Pb -3.8087 -2.1953 -2.4145 0
M  V30 3 Pb -3.3114 -1.0798 -1.7650 0
M  V30 4 Pb -3.1956 -1.8384 -3.6095 0
M  V30 5 Pb -2.6533 -0.6719 -2.9908 0
M  V30 6 Pd -2.3887 5.8123 2.7955 0
M  V30 7 Pb -1.4404 5.6828 3.0931 0
M  V30 8 Pb -3.3450 5.9535 2.5405 0
M  V30 9 Pb -2.1148 6.5460 2.1703 0
M  V30 10 Pb -2.6891 5.0567 3.3838 0
M  V30 11 Pd 3.4952 -3.5598 4.3760 0
M  V30 12 Pb 2.5358 -3.7870 4.5388 0
M  V30 13 Pb 3.3725 -2.6024 4.6444 0
M  V30 14 Pb 4.4344 -3.3310 4.1356 0
M  V30 15 Pb 3.5875 -4.4777 3.9867 0
M  V30 16 Pd 5.5520 -0.4950 -1.4466 0
M  V30 17 Pb 6.1489 -0.7127 -0.6797 0
M  V30 18 Pb 4.8864 -0.3356 -2.1759 0
M  V30 19 Pb 5.6321 0.4783 -1.2359 0
M  V30 20 Pb 5.4303 -1.4721 -1.6125 0
M  V30 21 Pd 3.0344 3.7387 1.6499 0
M  V30 22 Pb 2.3706 4.1870 2.2545 0
M  V30 23 Pb 3.1123 3.0116 2.3401 0
M  V30 24 Pb 3.7725 3.3738 1.0756 0
M  V30 25 Pb 2.9610 4.4730 0.9731 0
M  V30 26 Pd 0.3288 -4.7822 -4.1875 0
M  V30 27 Pb 0.6638 -3.8509 -4.3444 0
M  V30 28 Pb 0.0243 -5.7191 -3.9936 0
M  V30 29 Pb -0.5294 -4.5380 -4.6419 0
M  V30 30 Pb 1.2054 -4.9716 -3.7505 0
M  V30 31 Pd -0.9886 -7.3733 0.3151 0
M  V30 32 Pb -1.9098 -7.0916 0.0588 0
M  V30 33 Pb -0.8549 -7.7063 -0.6210 0
M  V30 34 Pb -0.0482 -7.5799 0.5884 0
M  V30 35 Pb -1.0974 -6.9576 1.2182 0
M  V30 36 Pd -0.5265 5.6912 -2.1275 0
M  V30 37 Pb 0.4232 5.8600 -1.8651 0
M  V30 38 Pb -1.4734 5.4916 -2.3698 0
M  V30 39 Pb -0.7897 6.4807 -1.5719 0
M  V30 40 Pb -0.3009 4.8495 -2.6158 0
M  V30 41 Pd -5.3655 2.2883 1.3072 0
M  V30 42 Pb -5.7498 3.1942 1.4635 0
M  V30 43 Pb -4.8801 1.4303 1.1422 0
M  V30 44 Pb -5.5009 2.4412 0.3339 0
M  V30 45 Pb -5.0870 2.2624 2.2663 0
M  V30 46 Ag -4.1197 -2.8263 -2.1669 0
M  V30 47 Fe -3.5249 -4.8847 -1.1550 0
M  V30 48 Ag -2.5654 -6.8078 -0.1570 0
M  V30 49 Ag 4.3473 -0.3214 -2.6977 0
M  V30 50 Fe 2.6181 -1.6505 -3.6418 0
M  V30 51 Ag 0.9598 -3.1639 -4.4217 0
M  V30 52 Ag 3.5743 -5.1403 3.6327 0
M  V30 53 Fe 2.2185 -6.5092 2.2412 0
M  V30 54 Ag 0.6443 -7.6466 0.8713 0
M  V30 55 Ag 1.8266 -4.0269 4.5694 0
M  V30 56 Fe 0.2441 -5.2969 3.3361 0
M  V30 57 Ag -1.1014 -6.6025 1.8789 0
M  V30 58 Ag 5.2775 -2.1945 -1.7338 0
M  V30 59 Fe 3.6564 -3.7182 -2.5575 0
M  V30 60 Ag 1.8823 -5.0237 -3.4381 0
M  V30 61 Ag 5.0950 -3.1012 3.8776 0
M  V30 62 Fe 6.0226 -2.0198 1.9859 0
M  V30 63 Ag 6.5047 -0.9388 -0.0652 0
M  V30 64 Ag -2.1474 -0.1572 -3.2064 0
M  V30 65 Fe -1.1616 2.0032 -3.1053 0
M  V30 66 Ag -0.2295 4.1844 -2.9540 0
M  V30 67 Ag -2.1607 5.2453 -2.5289 0
M  V30 68 Fe -3.9582 3.9776 -1.6486 0
M  V30 69 Ag -5.4807 2.6954 -0.3650 0
M  V30 70 Ag 3.3158 -1.8636 4.7751 0
M  V30 71 Fe 3.2204 0.3180 3.8290 0
M  V30 72 Ag 3.1266 2.5086 2.9038 0
M  V30 73 Ba -0.7449 5.6027 3.3680 0
M  V30 74 Ga 0.5728 5.0462 2.9939 0
M  V30 75 Ba 1.9423 4.5389 2.7648 0
M  V30 76 Ba 2.9535 5.0074 0.4450 0
M  V30 77 Ga 2.0251 5.4976 -0.5924 0
M  V30 78 Ba 1.1218 6.0128 -1.6397 0
M  V30 79 Ba 5.7070 1.1997 -1.0485 0
M  V30 80 Ga 4.9859 2.1691 -0.1978 0
M  V30 81 Ba 4.3558 3.2249 0.6211 0
M  V30 82 Ba -2.9546 4.4802 3.7902 0
M  V30 83 Ga -3.8760 3.3793 3.4388 0
M  V30 84 Ba -4.8024 2.3341 2.9561 0
M  V30 85 Ba -4.0732 6.0230 2.3770 0
M  V30 86 Ga -5.0683 5.0175 1.9718 0
M  V30 87 Ba -5.9454 3.9062 1.5713 0
M  V30 88 Ba -1.9358 7.0861 1.6785 0
M  V30 89 Ga -1.4521 7.0871 0.2828 0
M  V30 90 Ba -0.9679 7.0467 -1.1121 0
M  V30 91 Ba -3.1288 -2.2348 -4.2428 0
M  V30 92 Ga -2.1543 -3.2667 -4.6494 0
M  V30 93 Ba -1.1459 -4.2891 -4.9923 0
M  V30 94 Ba -3.3350 -0.9432 -1.0262 0
M  V30 95 Ga -3.9291 -0.0264 -0.0338 0
M  V30 96 Ba -4.4596 0.8157 1.0561 0
M  V30 97 Ba -0.1623 -6.4311 -3.8292 0
M  V30 98 Ga -0.4756 -7.1761 -2.5892 0
M  V30 99 Ba -0.7881 -7.9104 -1.3426 0
M  V30 END ATOM
M  V30 BEGIN BOND
M  V30 1 1 1 2
M  V30 2 1 1 3
M  V30 3 1 1 4
M  V30 4 1 1 5
M  V30 5 1 6 7
M  V30 6 1 6 8
M  V30 7 1 6 9
M  V30 8 1 6 10
M  V30 9 1 11 12
M  V30 10 1 11 13
M  V30 11 1 11 14
M  V30 12 1 11 15
M  V30 13 1 16 17
M  V30 14 1 16 18
M  V30 15 1 16 19
M  V30 16 1 16 20
M  V30 17 1 21 22
M  V30 18 1 21 23
M  V30 19 1 21 24
M  V30 20 1 21 25
M  V30 21 1 26 27
M  V30 22 1 26 28
M  V30 23 1 26 29
M  V30 24 1 26 30
M  V30 25 1 31 32
M  V30 26 1 31 33
M  V30 27 1 31 34
M  V30 28 1 31 35
M  V30 29 1 36 37
M  V30 30 1 36 38
M  V30 31 1 36 39
M  V30 32 1 36 40
M  V30 33 1 41 42
M  V30 34 1 41 43
M  V30 35 1 41 44
M  V30 36 1 41 45
M  V30 37 1 46 47
M  V30 38 1 47 48
M  V30 39 1 49 50
M  V30 40 1 50 51
M  V30 41 1 52 53
M  V30 42 1 53 54
M  V30 43 1 55 56
M  V30 44 1 56 57
M  V30 45 1 58 59
M  V30 46 1 59 60
M  V30 47 1 61 62
M  V30 48 1 62 63
M  V30 49 1 64 65
M  V30 50 1 65 66
M  V30 51 1 67 68
M  V30 52 1 68 69
M  V30 53 1 70 71
M  V30 54 1 71 72
M  V30 55 1 73 74
M  V30 56 1 74 75
M  V30 57 1 76 77
M  V30 58 1 77 78
M  V30 59 1 79 80
M  V30 60 1 80 81
M  V30 61 1 82 83
M  V30 62 1 83 84
M  V30 63 1 85 86
M  V30 64 1 86 87
M  V30 65 1 88 89
M  V30 66 1 89 90
M  V30 67 1 91 92
M  V30 68 1 92 93
M  V30 69 1 94 95
M  V30 70 1 95 96
M  V30 71 1 97 98
M  V30 72 1 98 99
M  V30 73 1 2 46
M  V30 74 1 3 94
M  V30 75 1 4 91
M  V30 76 1 5 64
M  V30 77 1 7 73
M  V30 78 1 8 85
M  V30 79 1 9 88
M  V30 80 1 10 82
M  V30 81 1 12 55
M  V30 82 1 13 70
M  V30 83 1 14 61
M  V30 84 1 15 52
M  V30 85 1 17 63
M  V30 86 1 18 49
M  V30 87 1 19 79
M  V30 88 1 20 58
M  V30 89 1 22 75
M  V30 90 1 23 72
M  V30 91 1 24 81
M  V30 92 1 25 76
M  V30 93 1 27 51
M  V30 94 1 28 97
M  V30 95 1 29 93
M  V30 96 1 30 60
M  V30 97 1 32 48
M  V30 98 1 33 99
M  V30 99 1 34 54
M  V30 100 1 35 57
M  V30 101 1 37 78
M  V30 102 1 38 67
M  V30 103 1 39 90
M  V30 104 1 40 66
M  V30 105 1 42 87
M  V30 106 1 43 96
M  V30 107 1 44 69
M  V30 108 1 45 84
M  V30 END BOND
M  V30 END CTAB
M  END

$$$$
