
     RDKit          3D

  0  0  0  0  0  0  0  0  0  0999 V3000
M  V30 BEGIN CTAB
M  V30 COUNTS 99 108 0 0 0
M  V30 BEGIN ATOM
M  V30 1 Pd -2.9128 1.6384 -1.9490 0
M  V30 2 Pb -3.5497 1.3954 -2.6787 0
M  V30 3 Pb -2.1939 1.2006 -2.4818 0
M  V30 4 Pb -3.6724 2.0652 -1.4580 0
M  V30 5 Pb -2.2739 1.8283 -1.1959 0
M  V30 6 Pd 7.6249 3.3744 -2.1271 0
M  V30 7 Pb 7.7933 2.7723 -1.3512 0
M  V30 8 Pb 8.0873 2.7335 -2.7364 0
M  V30 9 Pb 7.0896 3.9963 -1.5544 0
M  V30 10 Pb 7.3400 3.9041 -2.9334 0
M  V30 11 Pd -0.2723 -5.6503 0.6422 0
M  V30 12 Pb 0.0718 -5.4550 -0.2676 0
M  V30 13 Pb 0.6510 -5.5556 1.0165 0
M  V30 14 Pb -0.5842 -5.8555 1.5692 0
M  V30 15 Pb -1.2277 -5.6520 0.2768 0
M  V30 16 Pd -2.8437 -2.4646 6.7310 0
M  V30 17 Pb -2.4825 -3.3814 6.5843 0
M  V30 18 Pb -3.2213 -1.5402 6.7047 0
M  V30 19 Pb -1.9271 -2.1040 6.8949 0
M  V30 20 Pb -3.7446 -2.7962 6.4637 0
M  V30 21 Pd 3.9520 -0.2770 3.5191 0
M  V30 22 Pb 4.7479 -0.1376 2.9319 0
M  V30 23 Pb 4.0118 -1.2671 3.3865 0
M  V30 24 Pb 3.2473 -0.4085 4.2180 0
M  V30 25 Pb 3.8250 0.7151 3.5643 0
M  V30 26 Pd -6.8333 0.0028 1.5266 0
M  V30 27 Pb -6.4831 0.4739 2.3371 0
M  V30 28 Pb -7.1463 -0.5349 0.7425 0
M  V30 29 Pb -6.6376 0.8128 0.9732 0
M  V30 30 Pb -6.9918 -0.7865 2.1149 0
M  V30 31 Pd -4.5961 -2.9725 -2.6397 0
M  V30 32 Pb -4.8392 -2.1979 -3.2220 0
M  V30 33 Pb -5.4694 -2.8407 -2.1659 0
M  V30 34 Pb -4.3056 -3.7361 -2.0244 0
M  V30 35 Pb -3.7551 -3.0823 -3.1543 0
M  V30 36 Pd 2.3610 3.6835 -0.1089 0
M  V30 37 Pb 2.6262 3.5228 0.8482 0
M  V30 38 Pb 2.0835 3.9069 -1.0497 0
M  V30 39 Pb 3.2232 4.1864 -0.2208 0
M  V30 40 Pb 1.4814 3.2258 0.0649 0
M  V30 41 Pd 3.5300 2.6824 -5.5499 0
M  V30 42 Pb 4.1786 2.0806 -6.0113 0
M  V30 43 Pb 2.8420 1.9654 -5.5158 0
M  V30 44 Pb 2.9093 3.2635 -5.0185 0
M  V30 45 Pb 4.2554 3.3779 -5.4854 0
M  V30 46 Ag 7.8427 2.2785 -0.7933 0
M  V30 47 Fe 6.6418 1.1203 0.8938 0
M  V30 48 Ag 5.3852 -0.0094 2.5595 0
M  V30 49 Ag -1.2393 -1.8158 6.9614 0
M  V30 50 Fe 0.7638 -1.1668 5.8621 0
M  V30 51 Ag 2.7825 -0.5028 4.8010 0
M  V30 52 Ag -3.5478 -0.8841 6.5502 0
M  V30 53 Fe -4.8814 0.1008 4.8502 0
M  V30 54 Ag -6.1943 0.7390 2.9771 0
M  V30 55 Ag 8.2523 2.2658 -3.2897 0
M  V30 56 Fe 6.8450 1.6082 -5.0633 0
M  V30 57 Ag 4.7809 1.6882 -6.1999 0
M  V30 58 Ag 0.2091 -5.2575 -0.9658 0
M  V30 59 Fe -1.1353 -4.2081 -2.5868 0
M  V30 60 Ag -3.0883 -3.2140 -3.4441 0
M  V30 61 Ag -4.4056 -2.9791 6.1701 0
M  V30 62 Fe -5.8659 -2.3062 4.4292 0
M  V30 63 Ag -7.0415 -1.3422 2.6112 0
M  V30 64 Ag -0.7573 -5.9895 2.2861 0
M  V30 65 Fe -1.4891 -5.1260 4.3715 0
M  V30 66 Ag -2.2472 -4.0479 6.3443 0
M  V30 67 Ag -1.6918 0.8825 -2.9334 0
M  V30 68 Fe 0.3017 1.0800 -4.1986 0
M  V30 69 Ag 2.3123 1.4571 -5.3940 0
M  V30 70 Ag 1.3209 -5.4256 1.3300 0
M  V30 71 Fe 2.7350 -3.7811 2.3004 0
M  V30 72 Ag 4.0032 -2.0024 3.2351 0
M  V30 73 Ba -4.0196 1.1567 -3.2101 0
M  V30 74 Ga -4.5430 -0.1955 -3.4683 0
M  V30 75 Ba -4.9981 -1.5873 -3.6254 0
M  V30 76 Ba 3.7076 1.4574 3.5646 0
M  V30 77 Ga 3.2674 2.4404 2.5493 0
M  V30 78 Ba 2.8308 3.4643 1.5737 0
M  V30 79 Ba -1.9585 -5.6712 0.0279 0
M  V30 80 Ga -2.9741 -4.9331 -0.7957 0
M  V30 81 Ba -4.1083 -4.3320 -1.5745 0
M  V30 82 Ba 7.0864 4.2737 -3.5426 0
M  V30 83 Ga 5.9508 4.0792 -4.4790 0
M  V30 84 Ba 4.8148 3.8834 -5.4146 0
M  V30 85 Ba 6.6614 4.4738 -1.1638 0
M  V30 86 Ga 5.2541 4.5018 -0.7105 0
M  V30 87 Ba 3.8584 4.5933 -0.2309 0
M  V30 88 Ba -4.2784 2.3746 -1.1414 0
M  V30 89 Ga -5.3675 1.9022 -0.2647 0
M  V30 90 Ba -6.4648 1.4472 0.6110 0
M  V30 91 Ba -1.8200 1.9241 -0.5997 0
M  V30 92 Ga -0.4760 2.4355 -0.2407 0
M  V30 93 Ba 0.8315 2.9027 0.2778 0
M  V30 94 Ba 1.8527 4.1210 -1.7369 0
M  V30 95 Ga 2.1709 3.8771 -3.1623 0
M  V30 96 Ba 2.4365 3.6795 -4.6057 0
M  V30 97 Ba -7.3806 -1.0013 0.2020 0
M  V30 98 Ga -6.7434 -1.8419 -0.8331 0
M  V30 99 Ba -6.1516 -2.7000 -1.8808 0
M  V30 END ATOM
M  V30 BEGIN BOND
M  V30 1 1 1 2
M  V30 2 1 1 3
M  V30 3 1 1 4
M  V30 4 1 1 5
M  V30 5 1 6 7
M  V30 6 1 6 8
M  V30 7 1 6 9
M  V30 8 1 6 10
M  V30 9 1 11 12
M  V30 10 1 11 13
M  V30 11 1 11 14
M  V30 12 1 11 15
M  V30 13 1 16 17
M  V30 14 1 16 18
M  V30 15 1 16 19
M  V30 16 1 16 20
M  V30 17 1 21 22
M  V30 18 1 21 23
M  V30 19 1 21 24
M  V30 20 1 21 25
M  V30 21 1 26 27
M  V30 22 1 26 28
M  V30 23 1 26 29
M  V30 24 1 26 30
M  V30 25 1 31 32
M  V30 26 1 31 33
M  V30 27 1 31 34
M  V30 28 1 31 35
M  V30 29 1 36 37
M  V30 30 1 36 38
M  V30 31 1 36 39
M  V30 32 1 36 40
M  V30 33 1 41 42
M  V30 34 1 41 43
M  V30 35 1 41 44
M  V30 36 1 41 45
M  V30 37 1 46 47
M  V30 38 1 47 48
M  V30 39 1 49 50
M  V30 40 1 50 51
M  V30 41 1 52 53
M  V30 42 1 53 54
M  V30 43 1 55 56
M  V30 44 1 56 57
M  V30 45 1 58 59
M  V30 46 1 59 60
M  V30 47 1 61 62
M  V30 48 1 62 63
M  V30 49 1 64 65
M  V30 50 1 65 66
M  V30 51 1 67 68
M  V30 52 1 68 69
M  V30 53 1 70 71
M  V30 54 1 71 72
M  V30 55 1 73 74
M  V30 56 1 74 75
M  V30 57 1 76 77
M  V30 58 1 77 78
M  V30 59 1 79 80
M  V30 60 1 80 81
M  V30 61 1 82 83
M  V30 62 1 83 84
M  V30 63 1 85 86
M  V30 64 1 86 87
M  V30 65 1 88 89
M  V30 66 1 89 90
M  V30 67 1 91 92
M  V30 68 1 92 93
M  V30 69 1 94 95
M  V30 70 1 95 96
M  V30 71 1 97 98
M  V30 72 1 98 99
M  V30 73 1 2 73
M  V30 74 1 3 67
M  V30 75 1 4 88
M  V30 76 1 5 91
M  V30 77 1 7 46
M  V30 78 1 8 55
M  V30 79 1 9 85
M  V30 80 1 10 82
M  V30 81 1 12 58
M  V30 82 1 13 70
M  V30 83 1 14 64
M  V30 84 1 15 79
M  V30 85 1 17 66
M  V30 86 1 18 52
M  V30 87 1 19 49
M  V30 88 1 20 61
M  V30 89 1 22 48
M  V30 90 1 23 72
M  V30 91 1 24 51
M  V30 92 1 25 76
M  V30 93 1 27 54
M  V30 94 1 28 97
M  V30 95 1 29 90
M  V30 96 1 30 63
M  V30 97 1 32 75
M  V30 98 1 33 99
M  V30 99 1 34 81
M  V30 100 1 35 60
M  V30 101 1 37 78
M  V30 102 1 38 94
M  V30 103 1 39 87
M  V30 104 1 40 93
M  V30 105 1 42 57
M  V30 106 1 43 69
M  V30 107 1 44 96
M  V30 108 1 45 84
M  V30 END BOND
M  V30 END CTAB
M  END

$$$$
