
     RDKit          3D

  0  0  0  0  0  0  0  0  0  0999 V3000
M  V30 BEGIN CTAB
M  V30 COUNTS 99 108 0 0 0
M  V30 BEGIN ATOM
M  V30 1 Pd -0.8144 -3.0929 3.3033 0
M  V30 2 Pb -0.3068 -2.8565 2.4736 0
M  V30 3 Pb -1.3394 -3.3798 4.1097 0
M  V30 4 Pb -1.6045 -2.5695 2.9835 0
M  V30 5 Pb 0.0069 -3.5763 3.6082 0
M  V30 6 Pd -0.7320 4.5731 5.4018 0
M  V30 7 Pb -0.7760 4.6805 4.4096 0
M  V30 8 Pb -1.6886 4.2761 5.4478 0
M  V30 9 Pb 0.2640 4.6382 5.3774 0
M  V30 10 Pb -0.6923 4.4217 6.3845 0
M  V30 11 Pd 3.3447 -1.3321 -7.7353 0
M  V30 12 Pb 2.8832 -1.9734 -8.3424 0
M  V30 13 Pb 3.7894 -0.6922 -7.1109 0
M  V30 14 Pb 2.9514 -0.5465 -8.2092 0
M  V30 15 Pb 3.6076 -2.1123 -7.1471 0
M  V30 16 Pd -1.6848 3.4967 -5.4747 0
M  V30 17 Pb -1.0968 3.2975 -6.2607 0
M  V30 18 Pb -2.3427 2.8127 -5.7885 0
M  V30 19 Pb -1.0141 4.1578 -5.1357 0
M  V30 20 Pb -2.2799 3.6766 -4.6891 0
M  V30 21 Pd 2.2714 3.3030 -1.7572 0
M  V30 22 Pb 1.6113 3.6215 -1.0764 0
M  V30 23 Pb 2.9163 2.9855 -2.4507 0
M  V30 24 Pb 1.9166 3.9955 -2.3880 0
M  V30 25 Pb 2.6416 2.5976 -1.1486 0
M  V30 26 Pd -4.4441 0.1659 -2.6253 0
M  V30 27 Pb -4.4272 0.2789 -3.6188 0
M  V30 28 Pb -4.3932 -0.8275 -2.7208 0
M  V30 29 Pb -4.4429 0.0456 -1.6329 0
M  V30 30 Pb -4.4182 1.1617 -2.5324 0
M  V30 31 Pd 0.7506 -4.7722 -4.1125 0
M  V30 32 Pb 0.9543 -4.2662 -3.2724 0
M  V30 33 Pb -0.2051 -4.8348 -3.8301 0
M  V30 34 Pb 1.6879 -4.6093 -4.4610 0
M  V30 35 Pb 0.5311 -5.2126 -4.9789 0
M  V30 36 Pd 3.6601 -1.0009 4.7484 0
M  V30 37 Pb 3.8195 -0.7964 3.7820 0
M  V30 38 Pb 3.4471 -1.2224 5.6994 0
M  V30 39 Pb 3.7768 -0.0256 4.9474 0
M  V30 40 Pb 3.4683 -1.9628 4.5485 0
M  V30 41 Pd -2.3610 -1.3140 8.3518 0
M  V30 42 Pb -3.0708 -0.7545 7.9178 0
M  V30 43 Pb -2.5627 -2.1093 7.7785 0
M  V30 44 Pb -1.5180 -1.7422 8.6664 0
M  V30 45 Pb -2.1098 -0.5023 8.8694 0
M  V30 46 Ag -0.8022 4.7423 3.6636 0
M  V30 47 Fe 0.1693 4.3031 1.5416 0
M  V30 48 Ag 1.0918 3.8932 -0.6079 0
M  V30 49 Ag 0.0934 -2.7239 1.8520 0
M  V30 50 Fe 0.5916 -3.2838 -0.4034 0
M  V30 51 Ag 1.0826 -3.8521 -2.6582 0
M  V30 52 Ag 2.9668 2.0451 -0.7542 0
M  V30 53 Fe 3.4107 0.7370 1.1801 0
M  V30 54 Ag 3.9205 -0.6290 3.0573 0
M  V30 55 Ag -0.7132 4.2115 7.0979 0
M  V30 56 Fe -1.2565 2.2893 8.3660 0
M  V30 57 Ag -1.8944 0.1511 9.1524 0
M  V30 58 Ag -2.3405 3.9120 5.5497 0
M  V30 59 Fe -3.1217 1.8789 6.5093 0
M  V30 60 Ag -3.4750 -0.2227 7.5692 0
M  V30 61 Ag 2.5005 -2.5336 -8.6437 0
M  V30 62 Fe 1.2896 -4.2578 -7.5864 0
M  V30 63 Ag 0.4514 -5.3880 -5.6954 0
M  V30 64 Ag 2.5936 0.0641 -8.4531 0
M  V30 65 Fe 0.9755 1.6550 -7.7521 0
M  V30 66 Ag -0.6542 3.1246 -6.8430 0
M  V30 67 Ag 1.0045 4.5256 5.3810 0
M  V30 68 Fe 2.5397 2.7186 5.2314 0
M  V30 69 Ag 3.8098 0.7186 5.0508 0
M  V30 70 Ag -2.1822 -2.1571 2.7402 0
M  V30 71 Fe -3.3268 -1.1079 0.9431 0
M  V30 72 Ag -4.4273 -0.0814 -0.8942 0
M  V30 73 Ag 3.2165 -1.4560 6.3732 0
M  V30 74 Fe 1.3004 -1.7818 7.7343 0
M  V30 75 Ag -0.8116 -1.9414 8.8031 0
M  V30 76 Ag -4.2889 -1.5674 -2.7738 0
M  V30 77 Fe -2.6944 -3.2748 -3.1927 0
M  V30 78 Ag -0.9298 -4.7954 -3.6477 0
M  V30 79 Ag 4.0931 -0.1925 -6.6436 0
M  V30 80 Fe 3.7853 1.2768 -4.8052 0
M  V30 81 Ag 3.3946 2.7209 -2.9626 0
M  V30 82 Ba -0.5036 4.6435 -4.8758 0
M  V30 83 Ga 0.5725 4.5790 -3.8664 0
M  V30 84 Ba 1.6495 4.5182 -2.8577 0
M  V30 85 Ba -2.8385 2.2874 -5.9889 0
M  V30 86 Ga -3.6324 1.3249 -5.2027 0
M  V30 87 Ba -4.3981 0.3875 -4.3603 0
M  V30 88 Ba 3.7748 -2.6931 -6.6823 0
M  V30 89 Ga 3.0510 -3.5732 -5.7192 0
M  V30 90 Ba 2.3864 -4.4850 -4.7430 0
M  V30 91 Ba -2.7432 3.7849 -4.1071 0
M  V30 92 Ga -3.5598 2.8712 -3.2829 0
M  V30 93 Ba -4.3541 1.9085 -2.4934 0
M  V30 94 Ba 0.6633 -3.8962 3.7833 0
M  V30 95 Ga 1.9817 -3.3219 4.1196 0
M  V30 96 Ba 3.2705 -2.6811 4.4506 0
M  V30 97 Ba -1.7670 -3.6201 4.6825 0
M  V30 98 Ga -2.2111 -3.1458 6.0107 0
M  V30 99 Ba -2.6791 -2.7111 7.3442 0
M  V30 END ATOM
M  V30 BEGIN BOND
M  V30 1 1 1 2
M  V30 2 1 1 3
M  V30 3 1 1 4
M  V30 4 1 1 5
M  V30 5 1 6 7
M  V30 6 1 6 8
M  V30 7 1 6 9
M  V30 8 1 6 10
M  V30 9 1 11 12
M  V30 10 1 11 13
M  V30 11 1 11 14
M  V30 12 1 11 15
M  V30 13 1 16 17
M  V30 14 1 16 18
M  V30 15 1 16 19
M  V30 16 1 16 20
M  V30 17 1 21 22
M  V30 18 1 21 23
M  V30 19 1 21 24
M  V30 20 1 21 25
M  V30 21 1 26 27
M  V30 22 1 26 28
M  V30 23 1 26 29
M  V30 24 1 26 30
M  V30 25 1 31 32
M  V30 26 1 31 33
M  V30 27 1 31 34
M  V30 28 1 31 35
M  V30 29 1 36 37
M  V30 30 1 36 38
M  V30 31 1 36 39
M  V30 32 1 36 40
M  V30 33 1 41 42
M  V30 34 1 41 43
M  V30 35 1 41 44
M  V30 36 1 41 45
M  V30 37 1 46 47
M  V30 38 1 47 48
M  V30 39 1 49 50
M  V30 40 1 50 51
M  V30 41 1 52 53
M  V30 42 1 53 54
M  V30 43 1 55 56
M  V30 44 1 56 57
M  V30 45 1 58 59
M  V30 46 1 59 60
M  V30 47 1 61 62
M  V30 48 1 62 63
M  V30 49 1 64 65
M  V30 50 1 65 66
M  V30 51 1 67 68
M  V30 52 1 68 69
M  V30 53 1 70 71
M  V30 54 1 71 72
M  V30 55 1 73 74
M  V30 56 1 74 75
M  V30 57 1 76 77
M  V30 58 1 77 78
M  V30 59 1 79 80
M  V30 60 1 80 81
M  V30 61 1 82 83
M  V30 62 1 83 84
M  V30 63 1 85 86
M  V30 64 1 86 87
M  V30 65 1 88 89
M  V30 66 1 89 90
M  V30 67 1 91 92
M  V30 68 1 92 93
M  V30 69 1 94 95
M  V30 70 1 95 96
M  V30 71 1 97 98
M  V30 72 1 98 99
M  V30 73 1 2 49
M  V30 74 1 3 97
M  V30 75 1 4 70
M  V30 76 1 5 94
M  V30 77 1 7 46
M  V30 78 1 8 58
M  V30 79 1 9 67
M  V30 80 1 10 55
M  V30 81 1 12 61
M  V30 82 1 13 79
M  V30 83 1 14 64
M  V30 84 1 15 88
M  V30 85 1 17 66
M  V30 86 1 18 85
M  V30 87 1 19 82
M  V30 88 1 20 91
M  V30 89 1 22 48
M  V30 90 1 23 81
M  V30 91 1 24 84
M  V30 92 1 25 52
M  V30 93 1 27 87
M  V30 94 1 28 76
M  V30 95 1 29 72
M  V30 96 1 30 93
M  V30 97 1 32 51
M  V30 98 1 33 78
M  V30 99 1 34 90
M  V30 100 1 35 63
M  V30 101 1 37 54
M  V30 102 1 38 73
M  V30 103 1 39 69
M  V30 104 1 40 96
M  V30 105 1 42 60
M  V30 106 1 43 99
M  V30 107 1 44 75
M  V30 108 1 45 57
M  V30 END BOND
M  V30 END CTAB
M  END

$$$$
