
     RDKit          3D

  0  0  0  0  0  0  0  0  0  0999 V3000
M  V30 BEGIN CTAB
M  V30 COUNTS 99 108 0 0 0
M  V30 BEGIN ATOM
M  V30 1 Pd 1.4904 -3.8772 -0.6748 0
M  V30 2 Pb 2.2183 -3.8586 -1.3626 0
M  V30 3 Pb 0.7371 -3.8858 -0.0143 0
M  V30 4 Pb 0.7923 -3.9124 -1.3923 0
M  V30 5 Pb 2.2042 -3.8262 0.0293 0
M  V30 6 Pd -3.6074 -1.5366 7.8110 0
M  V30 7 Pb -3.5572 -0.9413 7.0062 0
M  V30 8 Pb -4.3478 -2.0677 7.3764 0
M  V30 9 Pb -2.7341 -1.1840 8.1366 0
M  V30 10 Pb -3.6598 -2.1509 8.5958 0
M  V30 11 Pd 2.9419 5.6234 -3.6080 0
M  V30 12 Pb 3.2323 5.1161 -4.4434 0
M  V30 13 Pb 2.6757 6.0488 -2.7452 0
M  V30 14 Pb 2.0885 5.9383 -4.0346 0
M  V30 15 Pb 3.7988 5.3684 -3.1763 0
M  V30 16 Pd -2.6182 4.4536 -4.4207 0
M  V30 17 Pb -1.9340 5.1740 -4.5598 0
M  V30 18 Pb -2.5083 4.1739 -5.3728 0
M  V30 19 Pb -2.7746 4.7350 -3.4735 0
M  V30 20 Pb -3.2755 3.7068 -4.2980 0
M  V30 21 Pd -0.5402 3.9050 2.8161 0
M  V30 22 Pb -1.1556 3.2114 3.1978 0
M  V30 23 Pb 0.0391 4.6040 2.3998 0
M  V30 24 Pb -1.2977 4.3009 2.3014 0
M  V30 25 Pb 0.2627 3.4777 3.2314 0
M  V30 26 Pd -2.4015 -0.2984 -6.2947 0
M  V30 27 Pb -2.4277 0.5516 -6.8167 0
M  V30 28 Pb -1.6121 -0.5816 -6.8322 0
M  V30 29 Pb -2.3247 -1.1329 -5.7477 0
M  V30 30 Pb -3.1410 0.0513 -5.7194 0
M  V30 31 Pd 4.9356 0.4616 -5.7036 0
M  V30 32 Pb 5.0440 -0.4758 -5.3751 0
M  V30 33 Pb 4.2394 0.1358 -6.3391 0
M  V30 34 Pb 5.6259 0.7701 -5.0599 0
M  V30 35 Pb 4.7208 1.4304 -5.9374 0
M  V30 36 Pd 2.9015 -2.5849 4.7550 0
M  V30 37 Pb 3.1004 -1.6185 4.6025 0
M  V30 38 Pb 2.6399 -3.5399 4.8957 0
M  V30 39 Pb 2.4720 -2.2918 5.6104 0
M  V30 40 Pb 3.3133 -2.8558 3.8842 0
M  V30 41 Pd -3.2183 -6.1953 5.2840 0
M  V30 42 Pb -4.0296 -5.6152 5.4517 0
M  V30 43 Pb -3.0260 -5.6857 4.4449 0
M  V30 44 Pb -2.3170 -6.6142 5.2082 0
M  V30 45 Pb -3.3620 -6.6268 6.1722 0
M  V30 46 Ag -3.5383 -0.5141 6.3874 0
M  V30 47 Fe -2.5384 1.1059 4.9628 0
M  V30 48 Ag -1.6598 2.7084 3.4418 0
M  V30 49 Ag 2.7676 -3.8281 -1.8746 0
M  V30 50 Fe 3.9573 -2.5599 -3.4933 0
M  V30 51 Ag 5.0458 -1.1633 -5.0769 0
M  V30 52 Ag 0.8920 3.1484 3.4725 0
M  V30 53 Fe 2.0773 1.1638 4.0150 0
M  V30 54 Ag 3.1736 -0.8762 4.5383 0
M  V30 55 Ag -2.9279 4.9210 -2.7627 0
M  V30 56 Fe -2.4199 4.7938 -0.4469 0
M  V30 57 Ag -1.8062 4.5942 1.8379 0
M  V30 58 Ag 4.4384 5.0947 -2.9252 0
M  V30 59 Fe 5.6563 3.1464 -3.4325 0
M  V30 60 Ag 6.0403 1.1151 -4.5551 0
M  V30 61 Ag -3.7031 -2.7347 9.0539 0
M  V30 62 Fe -3.6441 -5.0271 8.5115 0
M  V30 63 Ag -3.4583 -6.7353 6.9000 0
M  V30 64 Ag -2.0160 -1.0456 8.2893 0
M  V30 65 Fe 0.1264 -1.4613 7.3546 0
M  V30 66 Ag 2.1406 -2.0007 6.2187 0
M  V30 67 Ag 0.2490 -3.9305 -1.9114 0
M  V30 68 Fe -0.9982 -2.8585 -3.6269 0
M  V30 69 Ag -2.2227 -1.7537 -5.3379 0
M  V30 70 Ag 2.4005 -4.2483 4.9548 0
M  V30 71 Fe 0.4969 -5.6606 5.0739 0
M  V30 72 Ag -1.5901 -6.7843 5.1852 0
M  V30 73 Ag 0.1100 -3.8815 0.4011 0
M  V30 74 Fe -1.3318 -4.6135 2.1427 0
M  V30 75 Ag -2.8533 -5.2630 3.8491 0
M  V30 76 Ag -0.9781 -0.7322 -7.1952 0
M  V30 77 Fe 1.3770 -0.4832 -7.0872 0
M  V30 78 Ag 3.7019 -0.1320 -6.7839 0
M  V30 79 Ag 2.5037 6.3025 -2.0625 0
M  V30 80 Fe 1.4831 5.7905 0.0180 0
M  V30 81 Ag 0.4246 5.1345 2.0383 0
M  V30 82 Ba -2.4580 3.9392 -6.0815 0
M  V30 83 Ga -2.4354 2.5903 -6.6702 0
M  V30 84 Ba -2.4174 1.2078 -7.1752 0
M  V30 85 Ba -4.8454 -2.5250 7.0266 0
M  V30 86 Ga -4.7292 -3.8318 6.3170 0
M  V30 87 Ba -4.6033 -5.1386 5.6091 0
M  V30 88 Ba 3.4762 4.7482 -5.0737 0
M  V30 89 Ga 4.0007 3.4211 -5.5322 0
M  V30 90 Ba 4.5346 2.1527 -6.1258 0
M  V30 91 Ba -3.7510 3.1285 -4.2230 0
M  V30 92 Ga -3.7411 1.7436 -4.7366 0
M  V30 93 Ba -3.6613 0.3750 -5.2864 0
M  V30 94 Ba 1.4646 6.2362 -4.3372 0
M  V30 95 Ga 0.0257 5.9289 -4.4980 0
M  V30 96 Ba -1.4230 5.7077 -4.7055 0
M  V30 97 Ba 2.7991 -3.7857 0.4908 0
M  V30 98 Ga 3.1611 -3.4242 1.8775 0
M  V30 99 Ba 3.6231 -3.0859 3.2402 0
M  V30 END ATOM
M  V30 BEGIN BOND
M  V30 1 1 1 2
M  V30 2 1 1 3
M  V30 3 1 1 4
M  V30 4 1 1 5
M  V30 5 1 6 7
M  V30 6 1 6 8
M  V30 7 1 6 9
M  V30 8 1 6 10
M  V30 9 1 11 12
M  V30 10 1 11 13
M  V30 11 1 11 14
M  V30 12 1 11 15
M  V30 13 1 16 17
M  V30 14 1 16 18
M  V30 15 1 16 19
M  V30 16 1 16 20
M  V30 17 1 21 22
M  V30 18 1 21 23
M  V30 19 1 21 24
M  V30 20 1 21 25
M  V30 21 1 26 27
M  V30 22 1 26 28
M  V30 23 1 26 29
M  V30 24 1 26 30
M  V30 25 1 31 32
M  V30 26 1 31 33
M  V30 27 1 31 34
M  V30 28 1 31 35
M  V30 29 1 36 37
M  V30 30 1 36 38
M  V30 31 1 36 39
M  V30 32 1 36 40
M  V30 33 1 41 42
M  V30 34 1 41 43
M  V30 35 1 41 44
M  V30 36 1 41 45
M  V30 37 1 46 47
M  V30 38 1 47 48
M  V30 39 1 49 50
M  V30 40 1 50 51
M  V30 41 1 52 53
M  V30 42 1 53 54
M  V30 43 1 55 56
M  V30 44 1 56 57
M  V30 45 1 58 59
M  V30 46 1 59 60
M  V30 47 1 61 62
M  V30 48 1 62 63
M  V30 49 1 64 65
M  V30 50 1 65 66
M  V30 51 1 67 68
M  V30 52 1 68 69
M  V30 53 1 70 71
M  V30 54 1 71 72
M  V30 55 1 73 74
M  V30 56 1 74 75
M  V30 57 1 76 77
M  V30 58 1 77 78
M  V30 59 1 79 80
M  V30 60 1 80 81
M  V30 61 1 82 83
M  V30 62 1 83 84
M  V30 63 1 85 86
M  V30 64 1 86 87
M  V30 65 1 88 89
M  V30 66 1 89 90
M  V30 67 1 91 92
M  V30 68 1 92 93
M  V30 69 1 94 95
M  V30 70 1 95 96
M  V30 71 1 97 98
M  V30 72 1 98 99
M  V30 73 1 2 49
M  V30 74 1 3 73
M  V30 75 1 4 67
M  V30 76 1 5 97
M  V30 77 1 7 46
M  V30 78 1 8 85
M  V30 79 1 9 64
M  V30 80 1 10 61
M  V30 81 1 12 88
M  V30 82 1 13 79
M  V30 83 1 14 94
M  V30 84 1 15 58
M  V30 85 1 17 96
M  V30 86 1 18 82
M  V30 87 1 19 55
M  V30 88 1 20 91
M  V30 89 1 22 48
M  V30 90 1 23 81
M  V30 91 1 24 57
M  V30 92 1 25 52
M  V30 93 1 27 84
M  V30 94 1 28 76
M  V30 95 1 29 69
M  V30 96 1 30 93
M  V30 97 1 32 51
M  V30 98 1 33 78
M  V30 99 1 34 60
M  V30 100 1 35 90
M  V30 101 1 37 54
M  V30 102 1 38 70
M  V30 103 1 39 66
M  V30 104 1 40 99
M  V30 105 1 42 87
M  V30 106 1 43 75
M  V30 107 1 44 72
M  V30 108 1 45 63
M  V30 END BOND
M  V30 END CTAB
M  END

$$$$
