
     RDKit          3D

  0  0  0  0  0  0  0  0  0  0999 V3000
M  V30 BEGIN CTAB
M  V30 COUNTS 99 108 0 0 0
M  V30 BEGIN ATOM
M  V30 1 Pd -4.4355 2.5973 -0.0626 0
M  V30 2 Pb -4.8729 2.2295 -0.8863 0
M  V30 3 Pb -4.6960 1.7408 0.3840 0
M  V30 4 Pb -4.2153 3.4693 -0.5049 0
M  V30 5 Pb -3.9940 2.9518 0.7648 0
M  V30 6 Pd 2.1883 -4.5088 5.9369 0
M  V30 7 Pb 2.9290 -4.3766 5.2758 0
M  V30 8 Pb 1.4601 -4.6492 6.5985 0
M  V30 9 Pb 2.5793 -3.8497 6.5744 0
M  V30 10 Pb 1.6254 -5.0288 5.2892 0
M  V30 11 Pd 2.8573 -2.4684 -5.5476 0
M  V30 12 Pb 2.0028 -2.9859 -5.4672 0
M  V30 13 Pb 3.2441 -2.8804 -4.7241 0
M  V30 14 Pb 3.6620 -1.8763 -5.5921 0
M  V30 15 Pb 2.4613 -2.0563 -6.3664 0
M  V30 16 Pd 3.7744 2.1540 -3.0773 0
M  V30 17 Pb 4.3193 1.5568 -3.6709 0
M  V30 18 Pb 3.2333 2.7682 -2.4983 0
M  V30 19 Pb 4.3581 1.9364 -2.2937 0
M  V30 20 Pb 3.2219 2.4194 -3.8656 0
M  V30 21 Pd 4.7804 -1.1680 1.7101 0
M  V30 22 Pb 4.6854 -1.9519 2.3304 0
M  V30 23 Pb 4.8450 -1.8183 0.9547 0
M  V30 24 Pb 5.0074 -0.4082 1.0969 0
M  V30 25 Pb 4.6514 -0.4912 2.4361 0
M  V30 26 Pd -0.8503 4.8632 -3.6805 0
M  V30 27 Pb -0.1890 4.8174 -2.9303 0
M  V30 28 Pb -1.5055 4.8630 -4.4331 0
M  V30 29 Pb -1.5683 5.1886 -3.0653 0
M  V30 30 Pb -0.1621 4.4951 -4.3041 0
M  V30 31 Pd -3.7823 -0.4662 -7.0080 0
M  V30 32 Pb -4.4730 -0.3588 -6.2935 0
M  V30 33 Pb -3.9567 0.4807 -7.2625 0
M  V30 34 Pb -3.0066 -0.5049 -7.6340 0
M  V30 35 Pb -3.4874 -1.3610 -6.6692 0
M  V30 36 Pd -0.1354 2.1098 6.4732 0
M  V30 37 Pb 0.7550 2.2797 6.0527 0
M  V30 38 Pb -1.0299 1.8604 6.8481 0
M  V30 39 Pb 0.3677 1.5066 7.0925 0
M  V30 40 Pb -0.6160 2.6808 5.8060 0
M  V30 41 Pd -4.5345 -3.2530 5.2156 0
M  V30 42 Pb -4.1362 -3.6375 6.0401 0
M  V30 43 Pb -4.8872 -2.8406 4.3774 0
M  V30 44 Pb -4.7958 -2.4471 5.7433 0
M  V30 45 Pb -4.0583 -3.9759 4.7068 0
M  V30 46 Ag -5.2100 1.8915 -1.4683 0
M  V30 47 Fe -5.1198 0.8424 -3.5993 0
M  V30 48 Ag -4.9426 -0.1870 -5.7344 0
M  V30 49 Ag 4.5226 0.0711 2.9175 0
M  V30 50 Fe 3.0218 1.2274 4.3510 0
M  V30 51 Ag 1.4466 2.3068 5.7643 0
M  V30 52 Ag 2.0840 -1.7818 -6.9514 0
M  V30 53 Fe -0.0843 -1.1182 -7.6477 0
M  V30 54 Ag -2.3569 -0.5387 -8.0018 0
M  V30 55 Ag 1.0742 -5.3242 4.8667 0
M  V30 56 Fe -1.2615 -5.0395 4.4959 0
M  V30 57 Ag -3.5707 -4.4631 4.3984 0
M  V30 58 Ag 0.8702 -4.7341 7.0421 0
M  V30 59 Fe -1.4713 -4.4090 7.0582 0
M  V30 60 Ag -3.7366 -3.9123 6.6013 0
M  V30 61 Ag 1.3128 -3.2853 -5.4449 0
M  V30 62 Fe -0.9702 -2.7865 -5.8845 0
M  V30 63 Ag -3.1423 -1.9792 -6.4169 0
M  V30 64 Ag 2.6975 -3.2835 7.0477 0
M  V30 65 Fe 1.8673 -1.0892 7.4096 0
M  V30 66 Ag 0.8278 1.0445 7.4642 0
M  V30 67 Ag -3.6517 3.2597 1.3602 0
M  V30 68 Fe -2.3259 3.1525 3.3305 0
M  V30 69 Ag -1.0045 3.0840 5.3053 0
M  V30 70 Ag -1.7226 1.6468 7.0460 0
M  V30 71 Fe -3.3962 -0.0039 6.7053 0
M  V30 72 Ag -4.8238 -1.8185 6.1487 0
M  V30 73 Ag -4.9439 1.0893 0.6625 0
M  V30 74 Fe -5.0108 -0.6948 2.2281 0
M  V30 75 Ag -5.1336 -2.5124 3.7514 0
M  V30 76 Ag -1.9866 4.7872 -4.9998 0
M  V30 77 Fe -3.1019 3.1496 -6.2999 0
M  V30 78 Ag -4.0039 1.2204 -7.3388 0
M  V30 79 Ag 3.5658 -3.1527 -4.1052 0
M  V30 80 Fe 4.2251 -2.7741 -1.8566 0
M  V30 81 Ag 4.8462 -2.3053 0.3858 0
M  V30 82 Ba 3.5071 -4.3133 4.8001 0
M  V30 83 Ga 4.0430 -3.3885 3.7784 0
M  V30 84 Ba 4.7187 -2.5869 2.7362 0
M  V30 85 Ba 4.8209 1.8274 -1.7125 0
M  V30 86 Ga 4.9757 0.9545 -0.5310 0
M  V30 87 Ba 5.2638 0.1663 0.6842 0
M  V30 88 Ba 2.8336 3.2383 -2.0674 0
M  V30 89 Ga 1.5757 3.9985 -2.2203 0
M  V30 90 Ba 0.3170 4.7563 -2.3785 0
M  V30 91 Ba 2.8221 2.6468 -4.4562 0
M  V30 92 Ga 1.5787 3.4197 -4.6219 0
M  V30 93 Ba 0.3346 4.1935 -4.7768 0
M  V30 94 Ba 4.2507 -1.4117 -5.5759 0
M  V30 95 Ga 4.4994 -0.1431 -4.8608 0
M  V30 96 Ba 4.7245 1.1237 -4.1349 0
M  V30 97 Ba -4.0590 4.1499 -0.7851 0
M  V30 98 Ga -3.0857 4.7642 -1.7103 0
M  V30 99 Ba -2.1324 5.4194 -2.6283 0
M  V30 END ATOM
M  V30 BEGIN BOND
M  V30 1 1 1 2
M  V30 2 1 1 3
M  V30 3 1 1 4
M  V30 4 1 1 5
M  V30 5 1 6 7
M  V30 6 1 6 8
M  V30 7 1 6 9
M  V30 8 1 6 10
M  V30 9 1 11 12
M  V30 10 1 11 13
M  V30 11 1 11 14
M  V30 12 1 11 15
M  V30 13 1 16 17
M  V30 14 1 16 18
M  V30 15 1 16 19
M  V30 16 1 16 20
M  V30 17 1 21 22
M  V30 18 1 21 23
M  V30 19 1 21 24
M  V30 20 1 21 25
M  V30 21 1 26 27
M  V30 22 1 26 28
M  V30 23 1 26 29
M  V30 24 1 26 30
M  V30 25 1 31 32
M  V30 26 1 31 33
M  V30 27 1 31 34
M  V30 28 1 31 35
M  V30 29 1 36 37
M  V30 30 1 36 38
M  V30 31 1 36 39
M  V30 32 1 36 40
M  V30 33 1 41 42
M  V30 34 1 41 43
M  V30 35 1 41 44
M  V30 36 1 41 45
M  V30 37 1 46 47
M  V30 38 1 47 48
M  V30 39 1 49 50
M  V30 40 1 50 51
M  V30 41 1 52 53
M  V30 42 1 53 54
M  V30 43 1 55 56
M  V30 44 1 56 57
M  V30 45 1 58 59
M  V30 46 1 59 60
M  V30 47 1 61 62
M  V30 48 1 62 63
M  V30 49 1 64 65
M  V30 50 1 65 66
M  V30 51 1 67 68
M  V30 52 1 68 69
M  V30 53 1 70 71
M  V30 54 1 71 72
M  V30 55 1 73 74
M  V30 56 1 74 75
M  V30 57 1 76 77
M  V30 58 1 77 78
M  V30 59 1 79 80
M  V30 60 1 80 81
M  V30 61 1 82 83
M  V30 62 1 83 84
M  V30 63 1 85 86
M  V30 64 1 86 87
M  V30 65 1 88 89
M  V30 66 1 89 90
M  V30 67 1 91 92
M  V30 68 1 92 93
M  V30 69 1 94 95
M  V30 70 1 95 96
M  V30 71 1 97 98
M  V30 72 1 98 99
M  V30 73 1 2 46
M  V30 74 1 3 73
M  V30 75 1 4 97
M  V30 76 1 5 67
M  V30 77 1 7 82
M  V30 78 1 8 58
M  V30 79 1 9 64
M  V30 80 1 10 55
M  V30 81 1 12 61
M  V30 82 1 13 79
M  V30 83 1 14 94
M  V30 84 1 15 52
M  V30 85 1 17 96
M  V30 86 1 18 88
M  V30 87 1 19 85
M  V30 88 1 20 91
M  V30 89 1 22 84
M  V30 90 1 23 81
M  V30 91 1 24 87
M  V30 92 1 25 49
M  V30 93 1 27 90
M  V30 94 1 28 76
M  V30 95 1 29 99
M  V30 96 1 30 93
M  V30 97 1 32 48
M  V30 98 1 33 78
M  V30 99 1 34 54
M  V30 100 1 35 63
M  V30 101 1 37 51
M  V30 102 1 38 70
M  V30 103 1 39 66
M  V30 104 1 40 69
M  V30 105 1 42 60
M  V30 106 1 43 75
M  V30 107 1 44 72
M  V30 108 1 45 57
M  V30 END BOND
M  V30 END CTAB
M  END

$$$$
