
     RDKit          3D

  0  0  0  0  0  0  0  0  0  0999 V3000
M  V30 BEGIN CTAB
M  V30 COUNTS 99 108 0 0 0
M  V30 BEGIN ATOM
M  V30 1 Pd 1.2725 -2.9099 4.3733 0
M  V30 2 Pb 1.6626 -3.7350 3.9545 0
M  V30 3 Pb 0.9044 -2.1185 4.8680 0
M  V30 4 Pb 0.3433 -3.2837 4.3884 0
M  V30 5 Pb 2.1835 -2.5005 4.3197 0
M  V30 6 Pd -1.0904 6.6802 2.5146 0
M  V30 7 Pb -1.3453 6.0580 1.7743 0
M  V30 8 Pb -0.8102 7.2499 3.2842 0
M  V30 9 Pb -0.2385 6.9032 2.0437 0
M  V30 10 Pb -1.8712 6.3736 3.0615 0
M  V30 11 Pd 1.2282 -2.2019 -6.2833 0
M  V30 12 Pb 1.9267 -2.3299 -5.5740 0
M  V30 13 Pb 1.5730 -1.2920 -6.5102 0
M  V30 14 Pb 0.4873 -2.0782 -6.9442 0
M  V30 15 Pb 0.8871 -3.1056 -6.0371 0
M  V30 16 Pd -3.7126 -0.7089 -5.4635 0
M  V30 17 Pb -3.2471 -0.9377 -6.3195 0
M  V30 18 Pb -3.9841 -1.6611 -5.3293 0
M  V30 19 Pb -3.4554 0.2511 -5.5850 0
M  V30 20 Pb -4.1486 -0.5220 -4.5804 0
M  V30 21 Pd 0.4716 2.5611 -4.0437 0
M  V30 22 Pb -0.0433 2.8506 -3.2356 0
M  V30 23 Pb 0.9704 2.2703 -4.8593 0
M  V30 24 Pb -0.3708 2.6546 -4.5758 0
M  V30 25 Pb 1.3215 2.4496 -3.5257 0
M  V30 26 Pd -4.9018 -4.7879 0.3717 0
M  V30 27 Pb -5.0484 -4.9698 -0.5990 0
M  V30 28 Pb -4.5275 -5.7002 0.5163 0
M  V30 29 Pb -4.6396 -4.5898 1.3156 0
M  V30 30 Pb -5.1623 -3.8401 0.1796 0
M  V30 31 Pd 1.7759 -6.2929 -0.2796 0
M  V30 32 Pb 2.1417 -6.1630 0.6431 0
M  V30 33 Pb 1.0736 -6.9044 0.0773 0
M  V30 34 Pb 1.3813 -6.3982 -1.1898 0
M  V30 35 Pb 2.4069 -5.6291 -0.6868 0
M  V30 36 Pd 5.1628 3.1359 2.1292 0
M  V30 37 Pb 5.1041 2.8234 1.1824 0
M  V30 38 Pb 5.1302 3.4297 3.0832 0
M  V30 39 Pb 4.8761 4.0429 1.8236 0
M  V30 40 Pb 5.3448 2.2093 2.4539 0
M  V30 41 Pd -0.2197 4.5689 6.6919 0
M  V30 42 Pb -0.1169 5.5579 6.6002 0
M  V30 43 Pb -0.3175 3.5736 6.7469 0
M  V30 44 Pb 0.7630 4.4891 6.8464 0
M  V30 45 Pb -1.1749 4.6712 6.4103 0
M  V30 46 Ag -1.5248 5.5641 1.2390 0
M  V30 47 Fe -0.9649 4.3336 -0.7146 0
M  V30 48 Ag -0.4819 3.0660 -2.6650 0
M  V30 49 Ag 1.9846 2.3416 -3.1883 0
M  V30 50 Fe 3.4914 2.4753 -1.3566 0
M  V30 51 Ag 5.0012 2.6071 0.4727 0
M  V30 52 Ag -4.2148 -2.3520 -5.1545 0
M  V30 53 Fe -4.6970 -3.8028 -3.3392 0
M  V30 54 Ag -5.0938 -5.0252 -1.3440 0
M  V30 55 Ag 0.6801 -3.7766 -5.7836 0
M  V30 56 Fe 0.8131 -5.2009 -3.8927 0
M  V30 57 Ag 1.0914 -6.4200 -1.8782 0
M  V30 58 Ag 2.3997 -2.4770 -5.0057 0
M  V30 59 Fe 2.7137 -3.7491 -3.0196 0
M  V30 60 Ag 2.8003 -5.1192 -1.0765 0
M  V30 61 Ag -4.4675 -0.4730 -3.9005 0
M  V30 62 Fe -4.9470 -1.6966 -1.9187 0
M  V30 63 Ag -5.2952 -3.1406 -0.0618 0
M  V30 64 Ag 0.4449 6.9997 1.7540 0
M  V30 65 Fe 2.5737 5.9627 1.5932 0
M  V30 66 Ag 4.5780 4.6915 1.5964 0
M  V30 67 Ag -0.3806 -3.4865 4.4035 0
M  V30 68 Fe -2.3940 -3.9963 3.2488 0
M  V30 69 Ag -4.3547 -4.4970 2.0031 0
M  V30 70 Ag 2.8662 -2.2016 4.2322 0
M  V30 71 Fe 4.1972 -0.3757 3.5024 0
M  V30 72 Ag 5.4066 1.5200 2.7396 0
M  V30 73 Ag 5.0302 3.6109 3.8026 0
M  V30 74 Fe 3.3746 4.0503 5.4444 0
M  V30 75 Ag 1.5096 4.4470 6.8564 0
M  V30 76 Ag 0.5884 -1.5792 5.2883 0
M  V30 77 Fe 0.1413 0.6493 5.9865 0
M  V30 78 Ag -0.3894 2.8263 6.7822 0
M  V30 79 Ag -4.1292 -6.3206 0.6311 0
M  V30 80 Fe -1.8694 -7.0272 0.5327 0
M  V30 81 Ag 0.4732 -7.2930 0.2919 0
M  V30 82 Ba 2.0236 -4.3476 3.7027 0
M  V30 83 Ga 2.1737 -5.1880 2.4957 0
M  V30 84 Ba 2.3958 -6.0912 1.3462 0
M  V30 85 Ba -3.2659 0.9699 -5.6938 0
M  V30 86 Ga -2.1327 1.8408 -5.3235 0
M  V30 87 Ba -1.0093 2.7286 -4.9637 0
M  V30 88 Ba -2.3934 6.1106 3.5338 0
M  V30 89 Ga -2.2054 5.4430 4.8385 0
M  V30 90 Ba -1.8567 4.7939 6.1192 0
M  V30 91 Ba -0.5958 7.6097 3.9031 0
M  V30 92 Ga -0.3069 7.0312 5.2244 0
M  V30 93 Ba -0.0583 6.2928 6.4721 0
M  V30 94 Ba -0.0883 -1.9723 -7.4142 0
M  V30 95 Ga -1.4865 -1.5471 -7.2062 0
M  V30 96 Ba -2.8749 -1.1184 -6.9461 0
M  V30 97 Ba 1.8115 -0.6025 -6.6801 0
M  V30 98 Ga 1.5927 0.7262 -6.0812 0
M  V30 99 Ba 1.3557 2.0414 -5.4598 0
M  V30 END ATOM
M  V30 BEGIN BOND
M  V30 1 1 1 2
M  V30 2 1 1 3
M  V30 3 1 1 4
M  V30 4 1 1 5
M  V30 5 1 6 7
M  V30 6 1 6 8
M  V30 7 1 6 9
M  V30 8 1 6 10
M  V30 9 1 11 12
M  V30 10 1 11 13
M  V30 11 1 11 14
M  V30 12 1 11 15
M  V30 13 1 16 17
M  V30 14 1 16 18
M  V30 15 1 16 19
M  V30 16 1 16 20
M  V30 17 1 21 22
M  V30 18 1 21 23
M  V30 19 1 21 24
M  V30 20 1 21 25
M  V30 21 1 26 27
M  V30 22 1 26 28
M  V30 23 1 26 29
M  V30 24 1 26 30
M  V30 25 1 31 32
M  V30 26 1 31 33
M  V30 27 1 31 34
M  V30 28 1 31 35
M  V30 29 1 36 37
M  V30 30 1 36 38
M  V30 31 1 36 39
M  V30 32 1 36 40
M  V30 33 1 41 42
M  V30 34 1 41 43
M  V30 35 1 41 44
M  V30 36 1 41 45
M  V30 37 1 46 47
M  V30 38 1 47 48
M  V30 39 1 49 50
M  V30 40 1 50 51
M  V30 41 1 52 53
M  V30 42 1 53 54
M  V30 43 1 55 56
M  V30 44 1 56 57
M  V30 45 1 58 59
M  V30 46 1 59 60
M  V30 47 1 61 62
M  V30 48 1 62 63
M  V30 49 1 64 65
M  V30 50 1 65 66
M  V30 51 1 67 68
M  V30 52 1 68 69
M  V30 53 1 70 71
M  V30 54 1 71 72
M  V30 55 1 73 74
M  V30 56 1 74 75
M  V30 57 1 76 77
M  V30 58 1 77 78
M  V30 59 1 79 80
M  V30 60 1 80 81
M  V30 61 1 82 83
M  V30 62 1 83 84
M  V30 63 1 85 86
M  V30 64 1 86 87
M  V30 65 1 88 89
M  V30 66 1 89 90
M  V30 67 1 91 92
M  V30 68 1 92 93
M  V30 69 1 94 95
M  V30 70 1 95 96
M  V30 71 1 97 98
M  V30 72 1 98 99
M  V30 73 1 2 82
M  V30 74 1 3 76
M  V30 75 1 4 67
M  V30 76 1 5 70
M  V30 77 1 7 46
M  V30 78 1 8 91
M  V30 79 1 9 64
M  V30 80 1 10 88
M  V30 81 1 12 58
M  V30 82 1 13 97
M  V30 83 1 14 94
M  V30 84 1 15 55
M  V30 85 1 17 96
M  V30 86 1 18 52
M  V30 87 1 19 85
M  V30 88 1 20 61
M  V30 89 1 22 48
M  V30 90 1 23 99
M  V30 91 1 24 87
M  V30 92 1 25 49
M  V30 93 1 27 54
M  V30 94 1 28 79
M  V30 95 1 29 69
M  V30 96 1 30 63
M  V30 97 1 32 84
M  V30 98 1 33 81
M  V30 99 1 34 57
M  V30 100 1 35 60
M  V30 101 1 37 51
M  V30 102 1 38 73
M  V30 103 1 39 66
M  V30 104 1 40 72
M  V30 105 1 42 93
M  V30 106 1 43 78
M  V30 107 1 44 75
M  V30 108 1 45 90
M  V30 END BOND
M  V30 END CTAB
M  END

$$$$
