
     RDKit          3D

  0  0  0  0  0  0  0  0  0  0999 V3000
M  V30 BEGIN CTAB
M  V30 COUNTS 99 108 0 0 0
M  V30 BEGIN ATOM
M  V30 1 Pd 0.9491 0.1028 -4.9721 0
M  V30 2 Pb 1.2130 -0.4591 -5.7564 0
M  V30 3 Pb 0.3328 0.5823 -5.5940 0
M  V30 4 Pb 1.5368 -0.4107 -4.3469 0
M  V30 5 Pb 0.5263 0.5590 -4.1903 0
M  V30 6 Pd 4.3864 -0.3767 3.8743 0
M  V30 7 Pb 3.6725 -1.0814 3.8788 0
M  V30 8 Pb 4.3706 -0.4455 4.8736 0
M  V30 9 Pb 4.4036 -0.3057 2.8788 0
M  V30 10 Pb 5.0731 0.3563 3.8742 0
M  V30 11 Pd -3.5472 -0.3183 2.3466 0
M  V30 12 Pb -3.4475 0.6734 2.2180 0
M  V30 13 Pb -3.9479 -0.3939 1.4297 0
M  V30 14 Pb -3.5675 -1.3115 2.4693 0
M  V30 15 Pb -3.1961 -0.2634 3.2822 0
M  V30 16 Pd 4.2316 5.0349 3.9654 0
M  V30 17 Pb 4.2638 4.7442 4.9315 0
M  V30 18 Pb 4.1707 5.3419 3.0149 0
M  V30 19 Pb 3.4613 5.6253 4.1921 0
M  V30 20 Pb 4.9706 4.3847 3.7752 0
M  V30 21 Pd 1.4572 1.8842 7.7492 0
M  V30 22 Pb 2.2625 2.4876 7.7393 0
M  V30 23 Pb 0.6547 1.3022 7.6380 0
M  V30 24 Pb 2.0815 1.1031 7.7624 0
M  V30 25 Pb 0.8756 2.6913 7.6890 0
M  V30 26 Pd -3.8013 -2.6616 -9.0620 0
M  V30 27 Pb -3.9453 -3.6334 -8.8867 0
M  V30 28 Pb -3.6222 -1.6816 -9.0853 0
M  V30 29 Pb -4.7536 -2.5002 -8.8062 0
M  V30 30 Pb -2.8145 -2.7928 -9.1728 0
M  V30 31 Pd 1.2763 3.8877 -0.6568 0
M  V30 32 Pb 0.4605 4.2753 -0.2297 0
M  V30 33 Pb 0.6688 3.2080 -1.0581 0
M  V30 34 Pb 2.0556 3.3364 -0.9369 0
M  V30 35 Pb 1.9039 4.5735 -0.2832 0
M  V30 36 Pd -5.0629 -3.7827 -4.6008 0
M  V30 37 Pb -5.1801 -3.0585 -3.9170 0
M  V30 38 Pb -4.9238 -4.4826 -5.3040 0
M  V30 39 Pb -5.7195 -3.3435 -5.2159 0
M  V30 40 Pb -4.3671 -4.2125 -4.0275 0
M  V30 41 Pd 0.1895 -3.6888 1.2586 0
M  V30 42 Pb -0.6477 -3.8565 1.7809 0
M  V30 43 Pb 0.9729 -3.4572 0.6841 0
M  V30 44 Pb 0.6663 -3.3822 2.0848 0
M  V30 45 Pb -0.2739 -4.0676 0.4583 0
M  V30 46 Ag -0.1495 0.8571 -6.0950 0
M  V30 47 Fe -1.8230 0.1574 -7.6210 0
M  V30 48 Ag -3.3963 -0.9784 -8.9821 0
M  V30 49 Ag -3.8233 -4.5292 -3.6217 0
M  V30 50 Fe -2.2328 -4.4331 -1.8618 0
M  V30 51 Ag -0.6230 -4.3970 -0.1173 0
M  V30 52 Ag -4.2809 -0.4327 0.7550 0
M  V30 53 Fe -4.7430 -1.4995 -1.3200 0
M  V30 54 Ag -5.2546 -2.5020 -3.4154 0
M  V30 55 Ag -2.9618 -0.2803 3.9956 0
M  V30 56 Fe -1.4726 0.2994 5.7520 0
M  V30 57 Ag 0.0405 0.9069 7.4781 0
M  V30 58 Ag -3.3246 1.4081 2.0953 0
M  V30 59 Fe -1.8547 3.0253 1.1553 0
M  V30 60 Ag -0.1915 4.3795 0.1268 0
M  V30 61 Ag 4.4442 -0.1646 2.1452 0
M  V30 62 Fe 3.6431 1.2458 0.4168 0
M  V30 63 Ag 2.5899 2.8224 -1.0049 0
M  V30 64 Ag 1.9336 -0.8000 -3.8438 0
M  V30 65 Fe 1.8378 -2.0445 -1.8242 0
M  V30 66 Ag 1.4994 -3.2452 0.1956 0
M  V30 67 Ag 1.2486 -0.8980 -6.3642 0
M  V30 68 Fe -0.2503 -1.9470 -7.8810 0
M  V30 69 Ag -2.0632 -2.8084 -9.1539 0
M  V30 70 Ag 2.8394 5.9216 4.4689 0
M  V30 71 Fe 1.3358 5.0168 6.0443 0
M  V30 72 Ag 0.5725 3.3495 7.5271 0
M  V30 73 Ba 4.0879 5.6169 2.3211 0
M  V30 74 Ga 3.2425 5.3220 1.1463 0
M  V30 75 Ba 2.4202 5.0702 -0.0545 0
M  V30 76 Ba 5.5820 0.9099 3.8088 0
M  V30 77 Ga 5.5464 2.3892 3.7541 0
M  V30 78 Ba 5.5137 3.8685 3.7000 0
M  V30 79 Ba -4.0686 -4.3302 -8.6440 0
M  V30 80 Ga -4.4451 -4.7308 -7.2755 0
M  V30 81 Ba -4.8175 -4.9681 -5.8680 0
M  V30 82 Ba -3.5193 -2.0499 2.5988 0
M  V30 83 Ga -2.4360 -3.0278 2.3719 0
M  V30 84 Ba -1.3134 -3.9526 2.1155 0
M  V30 85 Ba 4.3144 -0.5471 5.6167 0
M  V30 86 Ga 3.4619 0.0028 6.6901 0
M  V30 87 Ba 2.6029 0.5636 7.7526 0
M  V30 88 Ba 0.1271 0.8278 -3.6155 0
M  V30 89 Ga 0.2112 1.7841 -2.4994 0
M  V30 90 Ba 0.1980 2.7125 -1.3567 0
M  V30 91 Ba -5.4358 -2.3953 -8.5146 0
M  V30 92 Ga -5.8794 -2.6875 -7.1382 0
M  V30 93 Ba -6.1682 -3.0350 -5.7335 0
M  V30 94 Ba 4.3040 4.5519 5.6648 0
M  V30 95 Ga 3.5633 3.7339 6.6592 0
M  V30 96 Ba 2.8713 2.9355 7.7034 0
M  V30 97 Ba 3.1329 -1.5960 3.9846 0
M  V30 98 Ga 2.0888 -2.3702 3.2812 0
M  V30 99 Ba 1.0059 -3.2146 2.7343 0
M  V30 END ATOM
M  V30 BEGIN BOND
M  V30 1 1 1 2
M  V30 2 1 1 3
M  V30 3 1 1 4
M  V30 4 1 1 5
M  V30 5 1 6 7
M  V30 6 1 6 8
M  V30 7 1 6 9
M  V30 8 1 6 10
M  V30 9 1 11 12
M  V30 10 1 11 13
M  V30 11 1 11 14
M  V30 12 1 11 15
M  V30 13 1 16 17
M  V30 14 1 16 18
M  V30 15 1 16 19
M  V30 16 1 16 20
M  V30 17 1 21 22
M  V30 18 1 21 23
M  V30 19 1 21 24
M  V30 20 1 21 25
M  V30 21 1 26 27
M  V30 22 1 26 28
M  V30 23 1 26 29
M  V30 24 1 26 30
M  V30 25 1 31 32
M  V30 26 1 31 33
M  V30 27 1 31 34
M  V30 28 1 31 35
M  V30 29 1 36 37
M  V30 30 1 36 38
M  V30 31 1 36 39
M  V30 32 1 36 40
M  V30 33 1 41 42
M  V30 34 1 41 43
M  V30 35 1 41 44
M  V30 36 1 41 45
M  V30 37 1 46 47
M  V30 38 1 47 48
M  V30 39 1 49 50
M  V30 40 1 50 51
M  V30 41 1 52 53
M  V30 42 1 53 54
M  V30 43 1 55 56
M  V30 44 1 56 57
M  V30 45 1 58 59
M  V30 46 1 59 60
M  V30 47 1 61 62
M  V30 48 1 62 63
M  V30 49 1 64 65
M  V30 50 1 65 66
M  V30 51 1 67 68
M  V30 52 1 68 69
M  V30 53 1 70 71
M  V30 54 1 71 72
M  V30 55 1 73 74
M  V30 56 1 74 75
M  V30 57 1 76 77
M  V30 58 1 77 78
M  V30 59 1 79 80
M  V30 60 1 80 81
M  V30 61 1 82 83
M  V30 62 1 83 84
M  V30 63 1 85 86
M  V30 64 1 86 87
M  V30 65 1 88 89
M  V30 66 1 89 90
M  V30 67 1 91 92
M  V30 68 1 92 93
M  V30 69 1 94 95
M  V30 70 1 95 96
M  V30 71 1 97 98
M  V30 72 1 98 99
M  V30 73 1 2 67
M  V30 74 1 3 46
M  V30 75 1 4 64
M  V30 76 1 5 88
M  V30 77 1 7 97
M  V30 78 1 8 85
M  V30 79 1 9 61
M  V30 80 1 10 76
M  V30 81 1 12 58
M  V30 82 1 13 52
M  V30 83 1 14 82
M  V30 84 1 15 55
M  V30 85 1 17 94
M  V30 86 1 18 73
M  V30 87 1 19 70
M  V30 88 1 20 78
M  V30 89 1 22 96
M  V30 90 1 23 57
M  V30 91 1 24 87
M  V30 92 1 25 72
M  V30 93 1 27 79
M  V30 94 1 28 48
M  V30 95 1 29 91
M  V30 96 1 30 69
M  V30 97 1 32 60
M  V30 98 1 33 90
M  V30 99 1 34 63
M  V30 100 1 35 75
M  V30 101 1 37 54
M  V30 102 1 38 81
M  V30 103 1 39 93
M  V30 104 1 40 49
M  V30 105 1 42 84
M  V30 106 1 43 66
M  V30 107 1 44 99
M  V30 108 1 45 51
M  V30 END BOND
M  V30 END CTAB
M  END

$$$$
