
     RDKit          3D

  0  0  0  0  0  0  0  0  0  0999 V3000
M  V30 BEGIN CTAB
M  V30 COUNTS 99 108 0 0 0
M  V30 BEGIN ATOM
M  V30 1 Pd 6.2115 -1.8121 -0.7381 0
M  V30 2 Pb 5.7108 -2.3957 -0.0945 0
M  V30 3 Pb 6.7124 -1.1975 -1.3464 0
M  V30 4 Pb 7.0441 -1.9018 -0.1877 0
M  V30 5 Pb 5.4084 -1.7113 -1.3262 0
M  V30 6 Pd 9.0468 1.9135 0.8532 0
M  V30 7 Pb 8.5914 2.7978 0.7616 0
M  V30 8 Pb 9.3545 0.9719 0.9773 0
M  V30 9 Pb 8.9114 1.7191 -0.1169 0
M  V30 10 Pb 9.1318 2.0855 1.8329 0
M  V30 11 Pd -3.8882 0.2732 2.8694 0
M  V30 12 Pb -4.1418 -0.6576 3.1355 0
M  V30 13 Pb -3.6553 1.1815 2.5323 0
M  V30 14 Pb -4.8164 0.4644 2.5436 0
M  V30 15 Pb -2.9666 0.1631 3.2611 0
M  V30 16 Pd -8.2759 0.0119 -1.1714 0
M  V30 17 Pb -7.9220 0.7530 -1.7844 0
M  V30 18 Pb -8.5092 -0.8142 -0.6630 0
M  V30 19 Pb -8.7980 -0.3693 -1.9234 0
M  V30 20 Pb -7.8492 0.4022 -0.3535 0
M  V30 21 Pd 1.8330 -1.6762 2.9361 0
M  V30 22 Pb 1.2664 -2.0783 2.2231 0
M  V30 23 Pb 2.4095 -1.3009 3.6639 0
M  V30 24 Pb 1.0575 -1.1527 3.3077 0
M  V30 25 Pb 2.5936 -2.2355 2.5935 0
M  V30 26 Pd 5.1030 2.5773 3.4914 0
M  V30 27 Pb 5.4125 3.2640 2.8306 0
M  V30 28 Pb 4.2177 2.4817 3.0393 0
M  V30 29 Pb 6.0036 2.6245 3.9201 0
M  V30 30 Pb 4.8211 1.8610 4.1287 0
M  V30 31 Pd -4.9734 -3.8182 -0.2053 0
M  V30 32 Pb -3.9784 -3.8237 -0.2073 0
M  V30 33 Pb -4.9048 -3.8593 -1.2067 0
M  V30 34 Pb -4.9767 -3.7395 0.7934 0
M  V30 35 Pb -5.9742 -3.7777 -0.1756 0
M  V30 36 Pd -0.0911 2.1260 -2.5435 0
M  V30 37 Pb -0.5418 2.2231 -3.4302 0
M  V30 38 Pb -0.7104 2.7781 -2.1195 0
M  V30 39 Pb 0.5225 1.4177 -2.8893 0
M  V30 40 Pb 0.3058 2.0326 -1.6314 0
M  V30 41 Pd -4.8411 0.5635 -5.5936 0
M  V30 42 Pb -5.6636 0.1070 -5.9051 0
M  V30 43 Pb -5.4102 1.2480 -5.1020 0
M  V30 44 Pb -4.3724 -0.2964 -5.7703 0
M  V30 45 Pb -3.9869 1.0725 -5.4552 0
M  V30 46 Ag -4.7227 -3.8545 -1.9400 0
M  V30 47 Fe -4.3793 -2.5802 -3.9188 0
M  V30 48 Ag -4.1853 -1.0166 -5.6994 0
M  V30 49 Ag -9.0904 -0.6353 -2.5454 0
M  V30 50 Fe -8.1435 -0.7113 -4.6880 0
M  V30 51 Ag -6.3071 -0.2182 -6.0591 0
M  V30 52 Ag 4.8391 -1.6068 -1.8042 0
M  V30 53 Fe 2.9089 -0.3955 -2.4728 0
M  V30 54 Ag 0.9853 0.8594 -3.0769 0
M  V30 55 Ag 3.5512 2.3514 2.7241 0
M  V30 56 Fe 2.0959 2.1954 0.8550 0
M  V30 57 Ag 0.5285 1.9965 -0.9168 0
M  V30 58 Ag 0.8734 -2.4171 1.6875 0
M  V30 59 Fe -1.1847 -3.1064 0.7365 0
M  V30 60 Ag -3.2339 -3.8029 -0.2284 0
M  V30 61 Ag -3.5136 1.8261 2.1843 0
M  V30 62 Fe -2.4073 2.7251 0.2935 0
M  V30 63 Ag -1.1496 3.1674 -1.6629 0
M  V30 64 Ba -5.4984 0.7140 2.3471 0
M  V30 65 Ga -6.5117 0.6435 1.2742 0
M  V30 66 Ba -7.6244 0.6907 0.3033 0
M  V30 67 Ba -0.8895 2.3165 -4.0874 0
M  V30 68 Ga -2.1401 1.8588 -4.7281 0
M  V30 69 Ba -3.3527 1.4803 -5.4823 0
M  V30 70 Ba 9.1245 2.2226 2.5682 0
M  V30 71 Ga 7.9631 2.4435 3.4445 0
M  V30 72 Ba 6.7046 2.6426 4.1809 0
M  V30 73 Ba 7.1004 -0.7091 -1.7614 0
M  V30 74 Ga 7.9525 0.4220 -1.3558 0
M  V30 75 Ba 8.7773 1.5218 -0.8264 0
M  V30 76 Ba 7.6938 -1.9373 0.1897 0
M  V30 77 Ga 8.6281 -0.8910 0.6486 0
M  V30 78 Ba 9.4826 0.2391 1.0614 0
M  V30 79 Ba 2.8281 -1.0241 4.2232 0
M  V30 80 Ga 3.7162 0.1399 4.4067 0
M  V30 81 Ba 4.6032 1.3060 4.5826 0
M  V30 82 Ba 8.1642 3.4131 0.7494 0
M  V30 83 Ga 6.9241 3.6553 1.5122 0
M  V30 84 Ba 5.7049 3.7518 2.3386 0
M  V30 85 Ba -4.3407 -1.3644 3.2928 0
M  V30 86 Ga -4.6576 -2.5257 2.4370 0
M  V30 87 Ba -4.9660 -3.6584 1.5408 0
M  V30 88 Ba -2.2996 0.1536 3.6191 0
M  V30 89 Ga -0.9070 -0.3508 3.5478 0
M  V30 90 Ba 0.5152 -0.7567 3.6556 0
M  V30 91 Ba 5.3628 -2.8348 0.4082 0
M  V30 92 Ga 4.2381 -2.7259 1.3635 0
M  V30 93 Ba 3.1306 -2.7029 2.3442 0
M  V30 94 Ba -7.6551 1.2969 -2.2681 0
M  V30 95 Ga -6.7513 1.4529 -3.4612 0
M  V30 96 Ba -5.8629 1.6816 -4.6543 0
M  V30 97 Ba -8.6286 -1.4921 -0.3693 0
M  V30 98 Ga -7.6991 -2.6265 -0.2025 0
M  V30 99 Ba -6.7165 -3.7196 -0.0656 0
M  V30 END ATOM
M  V30 BEGIN BOND
M  V30 1 1 1 2
M  V30 2 1 1 3
M  V30 3 1 1 4
M  V30 4 1 1 5
M  V30 5 1 6 7
M  V30 6 1 6 8
M  V30 7 1 6 9
M  V30 8 1 6 10
M  V30 9 1 11 12
M  V30 10 1 11 13
M  V30 11 1 11 14
M  V30 12 1 11 15
M  V30 13 1 16 17
M  V30 14 1 16 18
M  V30 15 1 16 19
M  V30 16 1 16 20
M  V30 17 1 21 22
M  V30 18 1 21 23
M  V30 19 1 21 24
M  V30 20 1 21 25
M  V30 21 1 26 27
M  V30 22 1 26 28
M  V30 23 1 26 29
M  V30 24 1 26 30
M  V30 25 1 31 32
M  V30 26 1 31 33
M  V30 27 1 31 34
M  V30 28 1 31 35
M  V30 29 1 36 37
M  V30 30 1 36 38
M  V30 31 1 36 39
M  V30 32 1 36 40
M  V30 33 1 41 42
M  V30 34 1 41 43
M  V30 35 1 41 44
M  V30 36 1 41 45
M  V30 37 1 46 47
M  V30 38 1 47 48
M  V30 39 1 49 50
M  V30 40 1 50 51
M  V30 41 1 52 53
M  V30 42 1 53 54
M  V30 43 1 55 56
M  V30 44 1 56 57
M  V30 45 1 58 59
M  V30 46 1 59 60
M  V30 47 1 61 62
M  V30 48 1 62 63
M  V30 49 1 64 65
M  V30 50 1 65 66
M  V30 51 1 67 68
M  V30 52 1 68 69
M  V30 53 1 70 71
M  V30 54 1 71 72
M  V30 55 1 73 74
M  V30 56 1 74 75
M  V30 57 1 76 77
M  V30 58 1 77 78
M  V30 59 1 79 80
M  V30 60 1 80 81
M  V30 61 1 82 83
M  V30 62 1 83 84
M  V30 63 1 85 86
M  V30 64 1 86 87
M  V30 65 1 88 89
M  V30 66 1 89 90
M  V30 67 1 91 92
M  V30 68 1 92 93
M  V30 69 1 94 95
M  V30 70 1 95 96
M  V30 71 1 97 98
M  V30 72 1 98 99
M  V30 73 1 2 91
M  V30 74 1 3 73
M  V30 75 1 4 76
M  V30 76 1 5 52
M  V30 77 1 7 82
M  V30 78 1 8 78
M  V30 79 1 9 75
M  V30 80 1 10 70
M  V30 81 1 12 85
M  V30 82 1 13 61
M  V30 83 1 14 64
M  V30 84 1 15 88
M  V30 85 1 17 94
M  V30 86 1 18 97
M  V30 87 1 19 49
M  V30 88 1 20 66
M  V30 89 1 22 58
M  V30 90 1 23 79
M  V30 91 1 24 90
M  V30 92 1 25 93
M  V30 93 1 27 84
M  V30 94 1 28 55
M  V30 95 1 29 72
M  V30 96 1 30 81
M  V30 97 1 32 60
M  V30 98 1 33 46
M  V30 99 1 34 87
M  V30 100 1 35 99
M  V30 101 1 37 67
M  V30 102 1 38 63
M  V30 103 1 39 54
M  V30 104 1 40 57
M  V30 105 1 42 51
M  V30 106 1 43 96
M  V30 107 1 44 48
M  V30 108 1 45 69
M  V30 END BOND
M  V30 END CTAB
M  END

$$$$
