
     RDKit          3D

  0  0  0  0  0  0  0  0  0  0999 V3000
M  V30 BEGIN CTAB
M  V30 COUNTS 99 108 0 0 0
M  V30 BEGIN ATOM
M  V30 1 Pd 2.4568 0.4243 1.5045 0
M  V30 2 Pb 2.5028 -0.1413 2.3241 0
M  V30 3 Pb 1.4702 0.4374 1.6742 0
M  V30 4 Pb 3.4462 0.3405 1.3704 0
M  V30 5 Pb 2.3701 0.9236 0.6366 0
M  V30 6 Pd -2.6096 5.8792 3.8466 0
M  V30 7 Pb -3.2173 5.6791 3.0814 0
M  V30 8 Pb -1.9977 6.0207 4.6275 0
M  V30 9 Pb -2.0684 6.4849 3.2550 0
M  V30 10 Pb -3.1290 5.2373 4.4130 0
M  V30 11 Pd -3.3674 -4.9686 -1.4451 0
M  V30 12 Pb -2.8547 -5.8180 -1.3067 0
M  V30 13 Pb -3.8611 -4.1067 -1.5849 0
M  V30 14 Pb -3.2230 -5.0257 -2.4334 0
M  V30 15 Pb -3.4966 -4.9179 -0.4533 0
M  V30 16 Pd 1.0897 -2.4497 -6.7608 0
M  V30 17 Pb 0.2820 -3.0358 -6.7739 0
M  V30 18 Pb 1.6603 -3.2293 -6.5146 0
M  V30 19 Pb 0.5136 -1.6499 -6.9172 0
M  V30 20 Pb 1.8912 -1.8733 -6.5981 0
M  V30 21 Pd -3.3284 2.6741 -3.1213 0
M  V30 22 Pb -3.7592 3.0838 -2.3197 0
M  V30 23 Pb -3.8132 1.8130 -2.9467 0
M  V30 24 Pb -2.9265 2.2996 -3.9570 0
M  V30 25 Pb -2.8303 3.5321 -3.2616 0
M  V30 26 Pd 5.5823 -2.9157 -1.3576 0
M  V30 27 Pb 5.3438 -3.5971 -2.0460 0
M  V30 28 Pb 5.4829 -3.6189 -0.6531 0
M  V30 29 Pb 5.7763 -2.1993 -0.6850 0
M  V30 30 Pb 5.5797 -2.2429 -2.0988 0
M  V30 31 Pd 0.0132 -6.1328 2.2660 0
M  V30 32 Pb 0.3227 -5.4825 2.9564 0
M  V30 33 Pb 0.9813 -6.3244 2.1029 0
M  V30 34 Pb -0.9417 -5.8595 2.3881 0
M  V30 35 Pb -0.2796 -6.7342 1.5225 0
M  V30 36 Pd 0.7135 5.2207 -0.4930 0
M  V30 37 Pb 0.1264 5.4262 -1.2793 0
M  V30 38 Pb 1.3091 4.9876 0.2699 0
M  V30 39 Pb 0.3415 6.0006 0.0201 0
M  V30 40 Pb 1.0769 4.4099 -0.9504 0
M  V30 41 Pd -0.4743 2.2095 5.6127 0
M  V30 42 Pb -0.3465 3.0196 6.1816 0
M  V30 43 Pb -0.6456 1.5369 4.8905 0
M  V30 44 Pb 0.4546 2.3246 5.2805 0
M  V30 45 Pb -1.4415 2.2184 5.8536 0
M  V30 46 Ag -3.6654 5.4871 2.5148 0
M  V30 47 Fe -3.8971 4.4614 0.3883 0
M  V30 48 Ag -4.0820 3.4263 -1.7383 0
M  V30 49 Ag 2.4332 -0.6246 2.8890 0
M  V30 50 Fe 1.5715 -2.7878 3.3356 0
M  V30 51 Ag 0.6231 -4.9600 3.3985 0
M  V30 52 Ag 0.0691 -1.0511 -6.9759 0
M  V30 53 Fe -1.2898 0.5093 -5.8122 0
M  V30 54 Ag -2.6362 2.0431 -4.5994 0
M  V30 55 Ag 2.1194 -3.7516 -6.2429 0
M  V30 56 Fe 3.6617 -4.0821 -4.4732 0
M  V30 57 Ag 5.1137 -4.0431 -2.5996 0
M  V30 58 Ag 2.5016 -1.5039 -6.3646 0
M  V30 59 Fe 4.0903 -1.5101 -4.5976 0
M  V30 60 Ag 5.4920 -1.8033 -2.7014 0
M  V30 61 Ag -3.1016 -5.0455 -3.1736 0
M  V30 62 Fe -1.7718 -4.3134 -4.9990 0
M  V30 63 Ag -0.3200 -3.4692 -6.6769 0
M  V30 64 Ag 1.7287 4.7427 0.8349 0
M  V30 65 Fe 1.6403 3.6270 2.9198 0
M  V30 66 Ag 1.0814 2.5229 4.9361 0
M  V30 67 Ag 5.3299 -4.1818 -0.1808 0
M  V30 68 Fe 3.5959 -5.3462 0.9514 0
M  V30 69 Ag 1.7232 -6.3678 1.9973 0
M  V30 70 Ag -4.2252 -3.4605 -1.7163 0
M  V30 71 Fe -4.1905 -1.1434 -2.2536 0
M  V30 72 Ag -4.1808 1.1741 -2.7904 0
M  V30 73 Ba -2.4619 4.1824 -3.3442 0
M  V30 74 Ga -1.3811 4.8730 -2.6093 0
M  V30 75 Ba -0.3009 5.5719 -1.8815 0
M  V30 76 Ba -3.5653 -4.9124 0.2952 0
M  V30 77 Ga -2.6351 -5.2643 1.3869 0
M  V30 78 Ba -1.6557 -5.6308 2.4298 0
M  V30 79 Ba -3.4710 4.7201 4.8369 0
M  V30 80 Ga -2.9120 3.5016 5.4476 0
M  V30 81 Ba -2.1683 2.3429 5.9705 0
M  V30 82 Ba -1.5614 6.0440 5.2399 0
M  V30 83 Ga -0.8880 4.9319 5.9386 0
M  V30 84 Ba -0.2909 3.6998 6.4890 0
M  V30 85 Ba -2.4609 -6.4450 -1.1767 0
M  V30 86 Ga -1.4910 -6.8258 -0.1306 0
M  V30 87 Ba -0.5294 -7.1419 0.9442 0
M  V30 88 Ba -1.6751 6.9321 2.7911 0
M  V30 89 Ga -0.8023 6.7414 1.6089 0
M  V30 90 Ba 0.0740 6.5790 0.4250 0
M  V30 91 Ba 4.1883 0.2470 1.2918 0
M  V30 92 Ga 5.0494 -0.6928 0.5442 0
M  V30 93 Ba 5.9061 -1.6350 -0.2056 0
M  V30 94 Ba 2.3114 1.2492 -0.0421 0
M  V30 95 Ga 1.8368 2.5193 -0.6316 0
M  V30 96 Ba 1.3680 3.7826 -1.2402 0
M  V30 97 Ba 0.7494 0.3616 1.8754 0
M  V30 98 Ga -0.0292 0.7380 3.0749 0
M  V30 99 Ba -0.7942 1.1215 4.2808 0
M  V30 END ATOM
M  V30 BEGIN BOND
M  V30 1 1 1 2
M  V30 2 1 1 3
M  V30 3 1 1 4
M  V30 4 1 1 5
M  V30 5 1 6 7
M  V30 6 1 6 8
M  V30 7 1 6 9
M  V30 8 1 6 10
M  V30 9 1 11 12
M  V30 10 1 11 13
M  V30 11 1 11 14
M  V30 12 1 11 15
M  V30 13 1 16 17
M  V30 14 1 16 18
M  V30 15 1 16 19
M  V30 16 1 16 20
M  V30 17 1 21 22
M  V30 18 1 21 23
M  V30 19 1 21 24
M  V30 20 1 21 25
M  V30 21 1 26 27
M  V30 22 1 26 28
M  V30 23 1 26 29
M  V30 24 1 26 30
M  V30 25 1 31 32
M  V30 26 1 31 33
M  V30 27 1 31 34
M  V30 28 1 31 35
M  V30 29 1 36 37
M  V30 30 1 36 38
M  V30 31 1 36 39
M  V30 32 1 36 40
M  V30 33 1 41 42
M  V30 34 1 41 43
M  V30 35 1 41 44
M  V30 36 1 41 45
M  V30 37 1 46 47
M  V30 38 1 47 48
M  V30 39 1 49 50
M  V30 40 1 50 51
M  V30 41 1 52 53
M  V30 42 1 53 54
M  V30 43 1 55 56
M  V30 44 1 56 57
M  V30 45 1 58 59
M  V30 46 1 59 60
M  V30 47 1 61 62
M  V30 48 1 62 63
M  V30 49 1 64 65
M  V30 50 1 65 66
M  V30 51 1 67 68
M  V30 52 1 68 69
M  V30 53 1 70 71
M  V30 54 1 71 72
M  V30 55 1 73 74
M  V30 56 1 74 75
M  V30 57 1 76 77
M  V30 58 1 77 78
M  V30 59 1 79 80
M  V30 60 1 80 81
M  V30 61 1 82 83
M  V30 62 1 83 84
M  V30 63 1 85 86
M  V30 64 1 86 87
M  V30 65 1 88 89
M  V30 66 1 89 90
M  V30 67 1 91 92
M  V30 68 1 92 93
M  V30 69 1 94 95
M  V30 70 1 95 96
M  V30 71 1 97 98
M  V30 72 1 98 99
M  V30 73 1 2 49
M  V30 74 1 3 97
M  V30 75 1 4 91
M  V30 76 1 5 94
M  V30 77 1 7 46
M  V30 78 1 8 82
M  V30 79 1 9 88
M  V30 80 1 10 79
M  V30 81 1 12 85
M  V30 82 1 13 70
M  V30 83 1 14 61
M  V30 84 1 15 76
M  V30 85 1 17 63
M  V30 86 1 18 55
M  V30 87 1 19 52
M  V30 88 1 20 58
M  V30 89 1 22 48
M  V30 90 1 23 72
M  V30 91 1 24 54
M  V30 92 1 25 73
M  V30 93 1 27 57
M  V30 94 1 28 67
M  V30 95 1 29 93
M  V30 96 1 30 60
M  V30 97 1 32 51
M  V30 98 1 33 69
M  V30 99 1 34 78
M  V30 100 1 35 87
M  V30 101 1 37 75
M  V30 102 1 38 64
M  V30 103 1 39 90
M  V30 104 1 40 96
M  V30 105 1 42 84
M  V30 106 1 43 99
M  V30 107 1 44 66
M  V30 108 1 45 81
M  V30 END BOND
M  V30 END CTAB
M  END

$$$$
