
     RDKit          3D

  0  0  0  0  0  0  0  0  0  0999 V3000
M  V30 BEGIN CTAB
M  V30 COUNTS 99 108 0 0 0
M  V30 BEGIN ATOM
M  V30 1 Pd 4.4357 -3.4291 -3.1745 0
M  V30 2 Pb 4.3342 -4.1735 -2.4960 0
M  V30 3 Pb 3.5457 -3.6728 -3.5582 0
M  V30 4 Pb 4.5488 -2.7020 -3.8559 0
M  V30 5 Pb 5.2930 -3.1818 -2.7297 0
M  V30 6 Pd -2.1748 5.1645 1.3851 0
M  V30 7 Pb -1.4674 5.8327 1.1452 0
M  V30 8 Pb -2.7983 5.6349 0.7668 0
M  V30 9 Pb -2.8346 4.4343 1.5667 0
M  V30 10 Pb -1.5466 4.6515 1.9594 0
M  V30 11 Pd -0.8377 -4.6146 5.6351 0
M  V30 12 Pb -1.8535 -4.6570 5.6180 0
M  V30 13 Pb 0.0274 -4.1157 5.6831 0
M  V30 14 Pb -0.7785 -4.6746 4.6383 0
M  V30 15 Pb -0.8503 -4.6583 6.6306 0
M  V30 16 Pd -0.8374 6.1797 -3.2633 0
M  V30 17 Pb -1.7109 6.4087 -2.8358 0
M  V30 18 Pb -0.3738 6.6122 -2.4894 0
M  V30 19 Pb 0.0402 5.9627 -3.7026 0
M  V30 20 Pb -1.3523 5.6897 -3.9610 0
M  V30 21 Pd 3.2205 2.1267 -4.8984 0
M  V30 22 Pb 3.6446 1.2230 -5.0144 0
M  V30 23 Pb 2.8738 3.0695 -4.8321 0
M  V30 24 Pb 3.2870 2.0559 -3.9066 0
M  V30 25 Pb 2.9495 2.0709 -5.8552 0
M  V30 26 Pd 3.3423 -4.5669 2.2991 0
M  V30 27 Pb 4.2890 -4.2580 2.3448 0
M  V30 28 Pb 2.3753 -4.8034 2.1902 0
M  V30 29 Pb 3.5818 -5.0929 1.4741 0
M  V30 30 Pb 3.0497 -3.9297 3.0032 0
M  V30 31 Pd -1.5818 0.1563 0.7349 0
M  V30 32 Pb -1.0497 -0.1203 1.5339 0
M  V30 33 Pb -1.2438 0.8120 1.4122 0
M  V30 34 Pb -2.1057 -0.0937 -0.0920 0
M  V30 35 Pb -0.7237 0.3670 0.2607 0
M  V30 36 Pd -3.6624 -0.4080 6.3025 0
M  V30 37 Pb -3.8502 -0.0849 5.3735 0
M  V30 38 Pb -3.5544 -0.6379 7.2660 0
M  V30 39 Pb -2.8636 0.1893 6.3731 0
M  V30 40 Pb -4.1017 -1.3099 6.1388 0
M  V30 41 Pd -2.3840 -0.8090 -5.0752 0
M  V30 42 Pb -2.7765 0.0943 -5.2229 0
M  V30 43 Pb -2.8085 -0.8761 -4.1669 0
M  V30 44 Pb -1.8949 -0.6678 -5.9347 0
M  V30 45 Pb -1.9093 -1.6781 -4.9515 0
M  V30 46 Ag 5.8405 -3.0584 -2.2421 0
M  V30 47 Fe 5.8761 -3.3843 0.0957 0
M  V30 48 Ag 4.9684 -4.0023 2.1852 0
M  V30 49 Ag 2.5950 1.8838 -6.4829 0
M  V30 50 Fe 0.5688 0.7105 -6.8415 0
M  V30 51 Ag -1.4649 -0.4595 -6.5104 0
M  V30 52 Ag 3.2104 1.9289 -3.1739 0
M  V30 53 Fe 1.5966 1.2564 -1.5643 0
M  V30 54 Ag -0.0416 0.5739 0.0162 0
M  V30 55 Ag -1.7955 5.2794 -4.3993 0
M  V30 56 Fe -2.4630 3.0759 -4.9627 0
M  V30 57 Ag -2.9703 0.7980 -5.3774 0
M  V30 58 Ag -3.2535 3.8266 1.7073 0
M  V30 59 Fe -3.6827 2.0081 3.1764 0
M  V30 60 Ag -4.0298 0.2297 4.7148 0
M  V30 61 Ag -0.9412 -4.5693 7.3601 0
M  V30 62 Fe -2.1395 -2.8386 8.3934 0
M  V30 63 Ag -3.4003 -0.9150 7.9353 0
M  V30 64 Ag 2.7126 -3.3985 3.3987 0
M  V30 65 Fe 1.0379 -1.7840 2.9509 0
M  V30 66 Ag -0.6379 -0.3269 2.1242 0
M  V30 67 Ag 2.8580 -3.8516 -3.7959 0
M  V30 68 Fe 0.6648 -3.1367 -4.3547 0
M  V30 69 Ag -1.4888 -2.2936 -4.8882 0
M  V30 70 Ag 0.4439 -3.4955 5.7617 0
M  V30 71 Fe -0.4248 -1.3079 6.0989 0
M  V30 72 Ag -2.1258 0.3304 6.3767 0
M  V30 73 Ba 0.7057 5.8504 -4.0405 0
M  V30 74 Ga 1.6473 4.7640 -4.3996 0
M  V30 75 Ba 2.6906 3.8033 -4.8284 0
M  V30 76 Ba -0.9363 6.3100 0.9082 0
M  V30 77 Ga -0.4716 6.6450 -0.4537 0
M  V30 78 Ba -0.0899 6.9020 -1.8577 0
M  V30 79 Ba -2.6152 -4.5313 5.6277 0
M  V30 80 Ga -3.4621 -3.2990 5.8181 0
M  V30 81 Ba -4.2827 -2.0495 6.0117 0
M  V30 82 Ba -0.7023 -4.7834 3.8994 0
M  V30 83 Ga 0.4615 -4.8506 2.9927 0
M  V30 84 Ba 1.6373 -4.9144 2.1013 0
M  V30 85 Ba 4.6557 -2.1857 -4.3929 0
M  V30 86 Ga 4.2844 -0.7913 -4.7204 0
M  V30 87 Ba 4.0046 0.5833 -5.1906 0
M  V30 88 Ba -2.5910 -0.3291 -0.6276 0
M  V30 89 Ga -2.7819 -0.5917 -2.0759 0
M  V30 90 Ba -3.1311 -0.9029 -3.4850 0
M  V30 91 Ba -3.2094 5.9843 0.2517 0
M  V30 92 Ga -2.8452 6.3066 -1.1362 0
M  V30 93 Ba -2.3605 6.5697 -2.4997 0
M  V30 94 Ba 4.2809 -4.7626 -2.0157 0
M  V30 95 Ga 4.0105 -5.0656 -0.5843 0
M  V30 96 Ba 3.7505 -5.4527 0.8288 0
M  V30 97 Ba -1.1269 4.1827 2.3558 0
M  V30 98 Ga -1.0044 2.7283 2.1733 0
M  V30 99 Ba -0.9444 1.2805 1.9180 0
M  V30 END ATOM
M  V30 BEGIN BOND
M  V30 1 1 1 2
M  V30 2 1 1 3
M  V30 3 1 1 4
M  V30 4 1 1 5
M  V30 5 1 6 7
M  V30 6 1 6 8
M  V30 7 1 6 9
M  V30 8 1 6 10
M  V30 9 1 11 12
M  V30 10 1 11 13
M  V30 11 1 11 14
M  V30 12 1 11 15
M  V30 13 1 16 17
M  V30 14 1 16 18
M  V30 15 1 16 19
M  V30 16 1 16 20
M  V30 17 1 21 22
M  V30 18 1 21 23
M  V30 19 1 21 24
M  V30 20 1 21 25
M  V30 21 1 26 27
M  V30 22 1 26 28
M  V30 23 1 26 29
M  V30 24 1 26 30
M  V30 25 1 31 32
M  V30 26 1 31 33
M  V30 27 1 31 34
M  V30 28 1 31 35
M  V30 29 1 36 37
M  V30 30 1 36 38
M  V30 31 1 36 39
M  V30 32 1 36 40
M  V30 33 1 41 42
M  V30 34 1 41 43
M  V30 35 1 41 44
M  V30 36 1 41 45
M  V30 37 1 46 47
M  V30 38 1 47 48
M  V30 39 1 49 50
M  V30 40 1 50 51
M  V30 41 1 52 53
M  V30 42 1 53 54
M  V30 43 1 55 56
M  V30 44 1 56 57
M  V30 45 1 58 59
M  V30 46 1 59 60
M  V30 47 1 61 62
M  V30 48 1 62 63
M  V30 49 1 64 65
M  V30 50 1 65 66
M  V30 51 1 67 68
M  V30 52 1 68 69
M  V30 53 1 70 71
M  V30 54 1 71 72
M  V30 55 1 73 74
M  V30 56 1 74 75
M  V30 57 1 76 77
M  V30 58 1 77 78
M  V30 59 1 79 80
M  V30 60 1 80 81
M  V30 61 1 82 83
M  V30 62 1 83 84
M  V30 63 1 85 86
M  V30 64 1 86 87
M  V30 65 1 88 89
M  V30 66 1 89 90
M  V30 67 1 91 92
M  V30 68 1 92 93
M  V30 69 1 94 95
M  V30 70 1 95 96
M  V30 71 1 97 98
M  V30 72 1 98 99
M  V30 73 1 2 94
M  V30 74 1 3 67
M  V30 75 1 4 85
M  V30 76 1 5 46
M  V30 77 1 7 76
M  V30 78 1 8 91
M  V30 79 1 9 58
M  V30 80 1 10 97
M  V30 81 1 12 79
M  V30 82 1 13 70
M  V30 83 1 14 82
M  V30 84 1 15 61
M  V30 85 1 17 93
M  V30 86 1 18 78
M  V30 87 1 19 73
M  V30 88 1 20 55
M  V30 89 1 22 87
M  V30 90 1 23 75
M  V30 91 1 24 52
M  V30 92 1 25 49
M  V30 93 1 27 48
M  V30 94 1 28 84
M  V30 95 1 29 96
M  V30 96 1 30 64
M  V30 97 1 32 66
M  V30 98 1 33 99
M  V30 99 1 34 88
M  V30 100 1 35 54
M  V30 101 1 37 60
M  V30 102 1 38 63
M  V30 103 1 39 72
M  V30 104 1 40 81
M  V30 105 1 42 57
M  V30 106 1 43 90
M  V30 107 1 44 51
M  V30 108 1 45 69
M  V30 END BOND
M  V30 END CTAB
M  END

$$$$
