
     RDKit          3D

  0  0  0  0  0  0  0  0  0  0999 V3000
M  V30 BEGIN CTAB
M  V30 COUNTS 99 108 0 0 0
M  V30 BEGIN ATOM
M  V30 1 Pd 1.4544 6.3569 2.0966 0
M  V30 2 Pb 0.5308 6.5299 2.4317 0
M  V30 3 Pb 1.6112 5.8457 2.9424 0
M  V30 4 Pb 2.3518 6.1127 1.7261 0
M  V30 5 Pb 1.2368 6.8097 1.2361 0
M  V30 6 Pd 0.2436 -3.2433 -2.5828 0
M  V30 7 Pb -0.1951 -2.8428 -3.3929 0
M  V30 8 Pb 0.7601 -3.5875 -1.7911 0
M  V30 9 Pb -0.5665 -3.1124 -2.0087 0
M  V30 10 Pb 1.0029 -3.4510 -3.2010 0
M  V30 11 Pd -1.9277 1.2696 -3.6440 0
M  V30 12 Pb -2.2617 1.7662 -2.8412 0
M  V30 13 Pb -2.3244 0.4212 -3.3202 0
M  V30 14 Pb -1.6031 0.6878 -4.3837 0
M  V30 15 Pb -1.4860 2.0829 -4.0277 0
M  V30 16 Pd 0.1806 -5.4798 -0.6513 0
M  V30 17 Pb -0.6918 -5.6346 -0.1887 0
M  V30 18 Pb -0.3371 -4.8464 -1.2292 0
M  V30 19 Pb 1.0911 -5.2133 -1.0009 0
M  V30 20 Pb 0.5864 -6.1236 -0.0046 0
M  V30 21 Pd 0.7359 -3.7741 3.2300 0
M  V30 22 Pb 0.8685 -2.8005 3.0746 0
M  V30 23 Pb 1.1928 -3.9494 2.3511 0
M  V30 24 Pb 0.2306 -3.5784 4.0680 0
M  V30 25 Pb 0.7059 -4.7624 3.3481 0
M  V30 26 Pd -3.9685 -0.5224 1.0691 0
M  V30 27 Pb -4.1618 -1.4213 1.4558 0
M  V30 28 Pb -3.7515 0.3587 0.6359 0
M  V30 29 Pb -3.4610 -1.0797 0.4061 0
M  V30 30 Pb -4.5166 -0.0609 1.7714 0
M  V30 31 Pd 2.4403 4.5768 -2.6444 0
M  V30 32 Pb 3.0848 4.7334 -1.8929 0
M  V30 33 Pb 3.0121 3.8313 -2.9932 0
M  V30 34 Pb 1.7638 4.4335 -3.3684 0
M  V30 35 Pb 1.9178 5.3706 -2.3373 0
M  V30 36 Pd 3.8428 -1.0674 -2.3875 0
M  V30 37 Pb 4.0216 -1.5354 -3.2426 0
M  V30 38 Pb 3.6526 -1.9981 -2.0327 0
M  V30 39 Pb 3.5716 -0.6341 -1.5326 0
M  V30 40 Pb 4.0478 -0.1766 -2.7970 0
M  V30 41 Pd -2.9696 2.0684 5.6267 0
M  V30 42 Pb -3.8499 1.7856 5.2484 0
M  V30 43 Pb -2.7808 1.1381 5.9379 0
M  V30 44 Pb -3.1124 2.9952 5.2861 0
M  V30 45 Pb -2.0460 2.3575 5.8803 0
M  V30 46 Ag -0.1775 -3.3556 4.6537 0
M  V30 47 Fe -1.4196 -1.5203 5.5018 0
M  V30 48 Ag -2.5982 0.4392 6.1357 0
M  V30 49 Ag -0.1647 6.5640 2.7027 0
M  V30 50 Fe -1.7725 5.2581 3.8569 0
M  V30 51 Ag -3.1253 3.6903 5.0121 0
M  V30 52 Ag 1.6191 5.4402 3.5742 0
M  V30 53 Fe 0.2555 4.0064 4.8894 0
M  V30 54 Ag -1.3478 2.6204 5.9631 0
M  V30 55 Ag 1.0619 -2.1110 2.8725 0
M  V30 56 Fe 2.1676 -1.0348 1.0767 0
M  V30 57 Ag 3.3012 -0.3661 -0.8916 0
M  V30 58 Ag -1.3302 -5.6249 0.2032 0
M  V30 59 Fe -2.9129 -4.0644 1.0327 0
M  V30 60 Ag -4.1928 -2.1520 1.6089 0
M  V30 61 Ag -2.5285 -0.2771 -3.1750 0
M  V30 62 Fe -1.7379 -2.3757 -2.4175 0
M  V30 63 Ag -0.8609 -4.4088 -1.5480 0
M  V30 64 Ba -2.5170 2.0911 -2.2134 0
M  V30 65 Ga -3.0597 1.5573 -0.9441 0
M  V30 66 Ba -3.6032 1.0327 0.3286 0
M  V30 67 Ba 2.9983 5.9085 1.4023 0
M  V30 68 Ga 3.3025 5.3873 0.0533 0
M  V30 69 Ba 3.5409 4.8703 -1.3104 0
M  V30 70 Ba 3.4807 3.3190 -3.2826 0
M  V30 71 Ga 3.8092 1.8832 -3.1686 0
M  V30 72 Ba 4.2268 0.4664 -3.1425 0
M  V30 73 Ba 1.5470 -3.5716 -3.7045 0
M  V30 74 Ga 2.8199 -2.8698 -3.8941 0
M  V30 75 Ba 3.9986 -2.0052 -3.8126 0
M  V30 76 Ba 1.8083 -5.0236 -1.1747 0
M  V30 77 Ga 2.6319 -3.8303 -1.5217 0
M  V30 78 Ba 3.5881 -2.7418 -1.8691 0
M  V30 79 Ba -1.1422 2.6650 -4.3571 0
M  V30 80 Ga 0.0490 3.5021 -4.1068 0
M  V30 81 Ba 1.2316 4.3615 -3.8939 0
M  V30 82 Ba -0.4174 -2.5297 -4.0433 0
M  V30 83 Ga -0.9120 -1.2082 -4.4822 0
M  V30 84 Ba -1.4144 0.1326 -4.8463 0
M  V30 85 Ba 1.2080 -3.8388 -1.2367 0
M  V30 86 Ga 1.3115 -3.9377 0.2402 0
M  V30 87 Ba 1.5401 -4.1013 1.6973 0
M  V30 88 Ba 0.7777 -6.5707 0.5646 0
M  V30 89 Ga 0.8076 -6.1744 1.9796 0
M  V30 90 Ba 0.7798 -5.5017 3.2856 0
M  V30 91 Ba -1.2131 -3.1044 -1.6254 0
M  V30 92 Ga -2.1116 -2.2629 -0.8049 0
M  V30 93 Ba -3.1854 -1.6656 0.0177 0
M  V30 94 Ba -4.9477 0.2410 2.3105 0
M  V30 95 Ga -4.7256 0.9142 3.6064 0
M  V30 96 Ba -4.4823 1.5873 4.8986 0
M  V30 97 Ba 1.0600 7.0945 0.5693 0
M  V30 98 Ga 1.2914 6.5720 -0.7865 0
M  V30 99 Ba 1.5587 5.9871 -2.1099 0
M  V30 END ATOM
M  V30 BEGIN BOND
M  V30 1 1 1 2
M  V30 2 1 1 3
M  V30 3 1 1 4
M  V30 4 1 1 5
M  V30 5 1 6 7
M  V30 6 1 6 8
M  V30 7 1 6 9
M  V30 8 1 6 10
M  V30 9 1 11 12
M  V30 10 1 11 13
M  V30 11 1 11 14
M  V30 12 1 11 15
M  V30 13 1 16 17
M  V30 14 1 16 18
M  V30 15 1 16 19
M  V30 16 1 16 20
M  V30 17 1 21 22
M  V30 18 1 21 23
M  V30 19 1 21 24
M  V30 20 1 21 25
M  V30 21 1 26 27
M  V30 22 1 26 28
M  V30 23 1 26 29
M  V30 24 1 26 30
M  V30 25 1 31 32
M  V30 26 1 31 33
M  V30 27 1 31 34
M  V30 28 1 31 35
M  V30 29 1 36 37
M  V30 30 1 36 38
M  V30 31 1 36 39
M  V30 32 1 36 40
M  V30 33 1 41 42
M  V30 34 1 41 43
M  V30 35 1 41 44
M  V30 36 1 41 45
M  V30 37 1 46 47
M  V30 38 1 47 48
M  V30 39 1 49 50
M  V30 40 1 50 51
M  V30 41 1 52 53
M  V30 42 1 53 54
M  V30 43 1 55 56
M  V30 44 1 56 57
M  V30 45 1 58 59
M  V30 46 1 59 60
M  V30 47 1 61 62
M  V30 48 1 62 63
M  V30 49 1 64 65
M  V30 50 1 65 66
M  V30 51 1 67 68
M  V30 52 1 68 69
M  V30 53 1 70 71
M  V30 54 1 71 72
M  V30 55 1 73 74
M  V30 56 1 74 75
M  V30 57 1 76 77
M  V30 58 1 77 78
M  V30 59 1 79 80
M  V30 60 1 80 81
M  V30 61 1 82 83
M  V30 62 1 83 84
M  V30 63 1 85 86
M  V30 64 1 86 87
M  V30 65 1 88 89
M  V30 66 1 89 90
M  V30 67 1 91 92
M  V30 68 1 92 93
M  V30 69 1 94 95
M  V30 70 1 95 96
M  V30 71 1 97 98
M  V30 72 1 98 99
M  V30 73 1 2 49
M  V30 74 1 3 52
M  V30 75 1 4 67
M  V30 76 1 5 97
M  V30 77 1 7 82
M  V30 78 1 8 85
M  V30 79 1 9 91
M  V30 80 1 10 73
M  V30 81 1 12 64
M  V30 82 1 13 61
M  V30 83 1 14 84
M  V30 84 1 15 79
M  V30 85 1 17 58
M  V30 86 1 18 63
M  V30 87 1 19 76
M  V30 88 1 20 88
M  V30 89 1 22 55
M  V30 90 1 23 87
M  V30 91 1 24 46
M  V30 92 1 25 90
M  V30 93 1 27 60
M  V30 94 1 28 66
M  V30 95 1 29 93
M  V30 96 1 30 94
M  V30 97 1 32 69
M  V30 98 1 33 70
M  V30 99 1 34 81
M  V30 100 1 35 99
M  V30 101 1 37 75
M  V30 102 1 38 78
M  V30 103 1 39 57
M  V30 104 1 40 72
M  V30 105 1 42 96
M  V30 106 1 43 48
M  V30 107 1 44 51
M  V30 108 1 45 54
M  V30 END BOND
M  V30 END CTAB
M  END

$$$$
