
     RDKit          3D

  0  0  0  0  0  0  0  0  0  0999 V3000
M  V30 BEGIN CTAB
M  V30 COUNTS 99 108 0 0 0
M  V30 BEGIN ATOM
M  V30 1 Pd 0.5948 3.7489 -0.4344 0
M  V30 2 Pb 0.0745 4.4078 0.1046 0
M  V30 3 Pb 1.1311 3.0435 -0.9028 0
M  V30 4 Pb 1.3637 3.9149 0.1814 0
M  V30 5 Pb -0.2375 3.5191 -0.9420 0
M  V30 6 Pd 3.1802 -2.3872 -7.2941 0
M  V30 7 Pb 2.7719 -3.0681 -6.6858 0
M  V30 8 Pb 3.9699 -2.2776 -6.6892 0
M  V30 9 Pb 2.3443 -2.4195 -7.8397 0
M  V30 10 Pb 3.5366 -1.6324 -7.8442 0
M  V30 11 Pd -4.1970 -1.3154 3.4401 0
M  V30 12 Pb -4.6184 -0.4131 3.3940 0
M  V30 13 Pb -4.3797 -1.4447 2.4635 0
M  V30 14 Pb -3.7693 -2.2155 3.4978 0
M  V30 15 Pb -3.9893 -1.1442 4.4085 0
M  V30 16 Pd 2.3840 -3.6145 4.6031 0
M  V30 17 Pb 1.5975 -4.2117 4.4773 0
M  V30 18 Pb 2.3894 -3.7936 5.5826 0
M  V30 19 Pb 2.3030 -3.3599 3.6402 0
M  V30 20 Pb 3.0803 -2.8954 4.7474 0
M  V30 21 Pd -2.1280 -3.0370 -1.8320 0
M  V30 22 Pb -1.4669 -3.4815 -2.4402 0
M  V30 23 Pb -2.8154 -2.6136 -1.2344 0
M  V30 24 Pb -1.3688 -2.9004 -1.1928 0
M  V30 25 Pb -2.8543 -3.1293 -2.5157 0
M  V30 26 Pd 2.6535 1.7376 6.5614 0
M  V30 27 Pb 2.5122 1.1564 7.3581 0
M  V30 28 Pb 2.0176 2.4126 6.9396 0
M  V30 29 Pb 2.8331 2.3106 5.7595 0
M  V30 30 Pb 3.2380 1.0099 6.1668 0
M  V30 31 Pd -2.6991 3.0579 5.8230 0
M  V30 32 Pb -2.5281 3.8827 5.2891 0
M  V30 33 Pb -1.9232 3.2803 6.4198 0
M  V30 34 Pb -2.8513 2.1722 6.2664 0
M  V30 35 Pb -3.4750 2.8663 5.2243 0
M  V30 36 Pd -3.3384 0.0864 -5.8367 0
M  V30 37 Pb -3.8219 -0.7266 -5.5085 0
M  V30 38 Pb -2.7886 0.8749 -6.1053 0
M  V30 39 Pb -3.0076 -0.4224 -6.6300 0
M  V30 40 Pb -3.5540 0.6038 -5.0121 0
M  V30 41 Pd 3.6409 1.7252 -5.1360 0
M  V30 42 Pb 4.3606 1.0567 -4.9497 0
M  V30 43 Pb 3.3383 1.6566 -4.1829 0
M  V30 44 Pb 2.8522 2.2866 -5.3767 0
M  V30 45 Pb 3.9036 1.6945 -6.1000 0
M  V30 46 Ag 2.4092 -3.5315 -6.2202 0
M  V30 47 Fe 0.7344 -3.7145 -4.5440 0
M  V30 48 Ag -0.9536 -3.8198 -2.8741 0
M  V30 49 Ag -0.2936 4.8469 0.5845 0
M  V30 50 Fe -1.3804 4.8172 2.6917 0
M  V30 51 Ag -2.3875 4.4325 4.8036 0
M  V30 52 Ag 2.1868 -3.1416 2.9327 0
M  V30 53 Fe 0.6974 -2.9940 1.0871 0
M  V30 54 Ag -0.7349 -2.8047 -0.7993 0
M  V30 55 Ag 2.3676 -3.7243 6.3204 0
M  V30 56 Fe 2.3702 -1.7337 7.5831 0
M  V30 57 Ag 2.4428 0.6076 7.8537 0
M  V30 58 Ag -3.4108 -2.8689 3.5596 0
M  V30 59 Fe -1.3030 -3.8816 3.9476 0
M  V30 60 Ag 0.9373 -4.5362 4.3594 0
M  V30 61 Ag 1.6718 -2.4059 -8.1683 0
M  V30 62 Fe -0.5554 -1.6609 -7.8284 0
M  V30 63 Ag -2.6682 -0.7930 -7.1847 0
M  V30 64 Ag 1.8810 4.0090 0.7153 0
M  V30 65 Fe 2.4891 3.3968 2.9289 0
M  V30 66 Ag 2.9968 2.7167 5.1481 0
M  V30 67 Ag -0.9014 3.3311 -1.2413 0
M  V30 68 Fe -2.2844 2.1980 -2.8051 0
M  V30 69 Ag -3.6019 1.0420 -4.4081 0
M  V30 70 Ag -2.3285 1.4532 -6.2212 0
M  V30 71 Fe -0.0840 2.1774 -5.9673 0
M  V30 72 Ag 2.2193 2.6129 -5.6041 0
M  V30 73 Ba -3.4060 -3.1564 -3.0256 0
M  V30 74 Ga -3.7937 -2.2717 -4.1434 0
M  V30 75 Ba -4.1404 -1.3559 -5.2496 0
M  V30 76 Ba -3.8297 -0.9878 5.1299 0
M  V30 77 Ga -3.4051 0.2329 5.8527 0
M  V30 78 Ba -2.9814 1.4796 6.5305 0
M  V30 79 Ba 3.7935 -1.0131 -8.1794 0
M  V30 80 Ga 3.9694 0.3230 -7.5818 0
M  V30 81 Ba 4.0781 1.5804 -6.8200 0
M  V30 82 Ba 4.5339 -2.1080 -6.2239 0
M  V30 83 Ga 4.7690 -0.8406 -5.5060 0
M  V30 84 Ba 4.8440 0.4889 -4.8707 0
M  V30 85 Ba -4.9141 0.2727 3.3878 0
M  V30 86 Ga -4.5085 1.5147 4.0645 0
M  V30 87 Ba -4.0512 2.7233 4.7685 0
M  V30 88 Ba 3.5851 -2.3360 4.8593 0
M  V30 89 Ga 3.5919 -0.9371 5.3758 0
M  V30 90 Ba 3.6860 0.4643 5.8764 0
M  V30 91 Ba 1.5583 2.4855 -1.1711 0
M  V30 92 Ga 2.3183 2.0730 -2.3694 0
M  V30 93 Ba 3.1224 1.5147 -3.4764 0
M  V30 94 Ba 1.5195 2.8895 7.2387 0
M  V30 95 Ga 0.0837 3.1779 7.0332 0
M  V30 96 Ba -1.3501 3.4956 6.8598 0
M  V30 97 Ba -4.5387 -1.4956 1.7305 0
M  V30 98 Ga -3.9034 -1.9291 0.4672 0
M  V30 99 Ba -3.4061 -2.3172 -0.8704 0
M  V30 END ATOM
M  V30 BEGIN BOND
M  V30 1 1 1 2
M  V30 2 1 1 3
M  V30 3 1 1 4
M  V30 4 1 1 5
M  V30 5 1 6 7
M  V30 6 1 6 8
M  V30 7 1 6 9
M  V30 8 1 6 10
M  V30 9 1 11 12
M  V30 10 1 11 13
M  V30 11 1 11 14
M  V30 12 1 11 15
M  V30 13 1 16 17
M  V30 14 1 16 18
M  V30 15 1 16 19
M  V30 16 1 16 20
M  V30 17 1 21 22
M  V30 18 1 21 23
M  V30 19 1 21 24
M  V30 20 1 21 25
M  V30 21 1 26 27
M  V30 22 1 26 28
M  V30 23 1 26 29
M  V30 24 1 26 30
M  V30 25 1 31 32
M  V30 26 1 31 33
M  V30 27 1 31 34
M  V30 28 1 31 35
M  V30 29 1 36 37
M  V30 30 1 36 38
M  V30 31 1 36 39
M  V30 32 1 36 40
M  V30 33 1 41 42
M  V30 34 1 41 43
M  V30 35 1 41 44
M  V30 36 1 41 45
M  V30 37 1 46 47
M  V30 38 1 47 48
M  V30 39 1 49 50
M  V30 40 1 50 51
M  V30 41 1 52 53
M  V30 42 1 53 54
M  V30 43 1 55 56
M  V30 44 1 56 57
M  V30 45 1 58 59
M  V30 46 1 59 60
M  V30 47 1 61 62
M  V30 48 1 62 63
M  V30 49 1 64 65
M  V30 50 1 65 66
M  V30 51 1 67 68
M  V30 52 1 68 69
M  V30 53 1 70 71
M  V30 54 1 71 72
M  V30 55 1 73 74
M  V30 56 1 74 75
M  V30 57 1 76 77
M  V30 58 1 77 78
M  V30 59 1 79 80
M  V30 60 1 80 81
M  V30 61 1 82 83
M  V30 62 1 83 84
M  V30 63 1 85 86
M  V30 64 1 86 87
M  V30 65 1 88 89
M  V30 66 1 89 90
M  V30 67 1 91 92
M  V30 68 1 92 93
M  V30 69 1 94 95
M  V30 70 1 95 96
M  V30 71 1 97 98
M  V30 72 1 98 99
M  V30 73 1 2 49
M  V30 74 1 3 91
M  V30 75 1 4 64
M  V30 76 1 5 67
M  V30 77 1 7 46
M  V30 78 1 8 82
M  V30 79 1 9 61
M  V30 80 1 10 79
M  V30 81 1 12 85
M  V30 82 1 13 97
M  V30 83 1 14 58
M  V30 84 1 15 76
M  V30 85 1 17 60
M  V30 86 1 18 55
M  V30 87 1 19 52
M  V30 88 1 20 88
M  V30 89 1 22 48
M  V30 90 1 23 99
M  V30 91 1 24 54
M  V30 92 1 25 73
M  V30 93 1 27 57
M  V30 94 1 28 94
M  V30 95 1 29 66
M  V30 96 1 30 90
M  V30 97 1 32 51
M  V30 98 1 33 96
M  V30 99 1 34 78
M  V30 100 1 35 87
M  V30 101 1 37 75
M  V30 102 1 38 70
M  V30 103 1 39 63
M  V30 104 1 40 69
M  V30 105 1 42 84
M  V30 106 1 43 93
M  V30 107 1 44 72
M  V30 108 1 45 81
M  V30 END BOND
M  V30 END CTAB
M  END

$$$$
