
     RDKit          3D

  0  0  0  0  0  0  0  0  0  0999 V3000
M  V30 BEGIN CTAB
M  V30 COUNTS 99 108 0 0 0
M  V30 BEGIN ATOM
M  V30 1 Pd 0.9860 -4.9371 -1.5714 0
M  V30 2 Pb 0.0252 -5.1713 -1.7227 0
M  V30 3 Pb 0.7410 -4.5628 -0.6813 0
M  V30 4 Pb 1.2780 -5.3244 -2.4511 0
M  V30 5 Pb 1.9431 -4.6721 -1.3882 0
M  V30 6 Pd -1.7957 2.8802 -4.3843 0
M  V30 7 Pb -2.6126 2.3044 -4.4480 0
M  V30 8 Pb -2.1700 3.3234 -3.5442 0
M  V30 9 Pb -1.0001 3.4707 -4.3495 0
M  V30 10 Pb -1.3934 2.4377 -5.1864 0
M  V30 11 Pd 2.6469 2.8583 3.5320 0
M  V30 12 Pb 3.1058 2.9290 2.6436 0
M  V30 13 Pb 2.4652 3.8405 3.5378 0
M  V30 14 Pb 2.7611 1.8595 3.5026 0
M  V30 15 Pb 2.2145 2.8605 4.4340 0
M  V30 16 Pd 2.0303 -3.1680 -6.6249 0
M  V30 17 Pb 1.7600 -2.2847 -7.0050 0
M  V30 18 Pb 2.8798 -2.7616 -6.2830 0
M  V30 19 Pb 1.1421 -3.5239 -6.9056 0
M  V30 20 Pb 2.2132 -4.0377 -6.1638 0
M  V30 21 Pd 4.5354 -0.4745 -0.3449 0
M  V30 22 Pb 4.4757 -1.4756 -0.4662 0
M  V30 23 Pb 4.5584 0.5183 -0.2328 0
M  V30 24 Pb 4.9314 -0.4377 -1.2617 0
M  V30 25 Pb 4.0394 -0.5617 0.5138 0
M  V30 26 Pd -0.4768 -1.6620 4.0008 0
M  V30 27 Pb -1.4210 -1.7231 4.3639 0
M  V30 28 Pb -0.8629 -1.2461 3.1786 0
M  V30 29 Pb -0.1390 -2.0838 4.8395 0
M  V30 30 Pb 0.4665 -1.4897 3.7061 0
M  V30 31 Pd -3.2169 1.3204 7.3875 0
M  V30 32 Pb -2.8644 0.6992 8.0843 0
M  V30 33 Pb -2.5770 2.0093 7.7073 0
M  V30 34 Pb -3.5084 1.9365 6.6521 0
M  V30 35 Pb -3.6058 0.5308 6.9011 0
M  V30 36 Pd -1.1406 5.4312 1.1127 0
M  V30 37 Pb -0.4539 5.7450 0.4702 0
M  V30 38 Pb -0.5296 5.7391 1.8413 0
M  V30 39 Pb -1.8287 5.1206 1.7744 0
M  V30 40 Pb -1.7214 5.1089 0.3380 0
M  V30 41 Pd -3.6626 -2.2854 -3.1057 0
M  V30 42 Pb -3.9777 -1.4311 -3.5216 0
M  V30 43 Pb -3.5004 -1.7977 -2.2488 0
M  V30 44 Pb -3.6932 -2.7413 -3.9909 0
M  V30 45 Pb -3.3634 -3.1586 -2.7150 0
M  V30 46 Ag 0.4354 -3.7269 -7.0337 0
M  V30 47 Fe -1.7004 -3.5301 -6.0284 0
M  V30 48 Ag -3.5687 -3.0763 -4.6449 0
M  V30 49 Ag 0.6858 -4.2122 -0.0282 0
M  V30 50 Fe 1.9064 -2.4434 0.9464 0
M  V30 51 Ag 3.5558 -0.7595 1.0399 0
M  V30 52 Ag -0.4459 3.9396 -4.2164 0
M  V30 53 Fe 0.1763 5.1607 -2.3047 0
M  V30 54 Ag 0.0149 5.9017 -0.0781 0
M  V30 55 Ag -0.0249 -2.2948 5.5423 0
M  V30 56 Fe -1.0296 -1.4010 7.4753 0
M  V30 57 Ag -2.4877 0.1721 8.4465 0
M  V30 58 Ag 1.8797 2.9876 5.0945 0
M  V30 59 Fe 0.0164 2.7930 6.5516 0
M  V30 60 Ag -1.9603 2.4133 7.8074 0
M  V30 61 Ag 3.4770 -2.4097 -5.9915 0
M  V30 62 Fe 4.4210 -1.4228 -4.0469 0
M  V30 63 Ag 5.1462 -0.5105 -1.9763 0
M  V30 64 Ag -1.2269 -0.9466 2.5961 0
M  V30 65 Fe -2.2662 -1.1825 0.4743 0
M  V30 66 Ag -3.3129 -1.3925 -1.6466 0
M  V30 67 Ag -3.6948 2.4007 6.0895 0
M  V30 68 Fe -3.0246 3.6465 4.1770 0
M  V30 69 Ag -2.3541 4.8923 2.2645 0
M  V30 70 Ag -1.0437 2.1122 -5.7652 0
M  V30 71 Fe 0.2275 0.2758 -6.5726 0
M  V30 72 Ag 1.4859 -1.6263 -7.2340 0
M  V30 73 Ba -0.7067 -5.3278 -1.7821 0
M  V30 74 Ga -1.9238 -4.5683 -2.1344 0
M  V30 75 Ba -3.1651 -3.8448 -2.4782 0
M  V30 76 Ba 2.6667 -4.4999 -1.2337 0
M  V30 77 Ga 3.5164 -3.3242 -0.9059 0
M  V30 78 Ba 4.4641 -2.2280 -0.5712 0
M  V30 79 Ba 2.8506 1.1132 3.4229 0
M  V30 80 Ga 2.0053 -0.1019 3.4851 0
M  V30 81 Ba 1.1853 -1.3347 3.5409 0
M  V30 82 Ba 1.5578 -5.6222 -3.0856 0
M  V30 83 Ga 1.9173 -5.1509 -4.4413 0
M  V30 84 Ba 2.2794 -4.6925 -5.8007 0
M  V30 85 Ba 2.2579 4.5593 3.5756 0
M  V30 86 Ga 1.1307 5.2931 2.9720 0
M  V30 87 Ba -0.0153 5.9684 2.3363 0
M  V30 88 Ba -3.2424 1.8989 -4.5083 0
M  V30 89 Ga -3.7085 0.5416 -4.1611 0
M  V30 90 Ba -4.2334 -0.8004 -3.8391 0
M  V30 91 Ba 3.4653 3.0119 1.9879 0
M  V30 92 Ga 4.0044 2.1325 0.9316 0
M  V30 93 Ba 4.5460 1.2605 -0.1295 0
M  V30 94 Ba -2.5031 3.6455 -2.9292 0
M  V30 95 Ga -2.2479 4.2537 -1.5838 0
M  V30 96 Ba -2.1948 4.8865 -0.2266 0
M  V30 97 Ba -2.1348 -1.7375 4.6354 0
M  V30 98 Ga -2.9638 -0.9173 5.5643 0
M  V30 99 Ba -3.7785 -0.0867 6.4965 0
M  V30 END ATOM
M  V30 BEGIN BOND
M  V30 1 1 1 2
M  V30 2 1 1 3
M  V30 3 1 1 4
M  V30 4 1 1 5
M  V30 5 1 6 7
M  V30 6 1 6 8
M  V30 7 1 6 9
M  V30 8 1 6 10
M  V30 9 1 11 12
M  V30 10 1 11 13
M  V30 11 1 11 14
M  V30 12 1 11 15
M  V30 13 1 16 17
M  V30 14 1 16 18
M  V30 15 1 16 19
M  V30 16 1 16 20
M  V30 17 1 21 22
M  V30 18 1 21 23
M  V30 19 1 21 24
M  V30 20 1 21 25
M  V30 21 1 26 27
M  V30 22 1 26 28
M  V30 23 1 26 29
M  V30 24 1 26 30
M  V30 25 1 31 32
M  V30 26 1 31 33
M  V30 27 1 31 34
M  V30 28 1 31 35
M  V30 29 1 36 37
M  V30 30 1 36 38
M  V30 31 1 36 39
M  V30 32 1 36 40
M  V30 33 1 41 42
M  V30 34 1 41 43
M  V30 35 1 41 44
M  V30 36 1 41 45
M  V30 37 1 46 47
M  V30 38 1 47 48
M  V30 39 1 49 50
M  V30 40 1 50 51
M  V30 41 1 52 53
M  V30 42 1 53 54
M  V30 43 1 55 56
M  V30 44 1 56 57
M  V30 45 1 58 59
M  V30 46 1 59 60
M  V30 47 1 61 62
M  V30 48 1 62 63
M  V30 49 1 64 65
M  V30 50 1 65 66
M  V30 51 1 67 68
M  V30 52 1 68 69
M  V30 53 1 70 71
M  V30 54 1 71 72
M  V30 55 1 73 74
M  V30 56 1 74 75
M  V30 57 1 76 77
M  V30 58 1 77 78
M  V30 59 1 79 80
M  V30 60 1 80 81
M  V30 61 1 82 83
M  V30 62 1 83 84
M  V30 63 1 85 86
M  V30 64 1 86 87
M  V30 65 1 88 89
M  V30 66 1 89 90
M  V30 67 1 91 92
M  V30 68 1 92 93
M  V30 69 1 94 95
M  V30 70 1 95 96
M  V30 71 1 97 98
M  V30 72 1 98 99
M  V30 73 1 2 73
M  V30 74 1 3 49
M  V30 75 1 4 82
M  V30 76 1 5 76
M  V30 77 1 7 88
M  V30 78 1 8 94
M  V30 79 1 9 52
M  V30 80 1 10 70
M  V30 81 1 12 91
M  V30 82 1 13 85
M  V30 83 1 14 79
M  V30 84 1 15 58
M  V30 85 1 17 72
M  V30 86 1 18 61
M  V30 87 1 19 46
M  V30 88 1 20 84
M  V30 89 1 22 78
M  V30 90 1 23 93
M  V30 91 1 24 63
M  V30 92 1 25 51
M  V30 93 1 27 97
M  V30 94 1 28 64
M  V30 95 1 29 55
M  V30 96 1 30 81
M  V30 97 1 32 57
M  V30 98 1 33 60
M  V30 99 1 34 67
M  V30 100 1 35 99
M  V30 101 1 37 54
M  V30 102 1 38 87
M  V30 103 1 39 69
M  V30 104 1 40 96
M  V30 105 1 42 90
M  V30 106 1 43 66
M  V30 107 1 44 48
M  V30 108 1 45 75
M  V30 END BOND
M  V30 END CTAB
M  END

$$$$
