
     RDKit          3D

  0  0  0  0  0  0  0  0  0  0999 V3000
M  V30 BEGIN CTAB
M  V30 COUNTS 99 108 0 0 0
M  V30 BEGIN ATOM
M  V30 1 Pd -2.6581 -0.2538 0.2052 0
M  V30 2 Pb -3.3120 0.0804 0.8862 0
M  V30 3 Pb -2.1759 -0.7315 0.9355 0
M  V30 4 Pb -3.1453 0.2148 -0.5317 0
M  V30 5 Pb -2.0035 -0.5904 -0.4748 0
M  V30 6 Pd 3.1219 -8.4515 0.8263 0
M  V30 7 Pb 3.7509 -7.6761 0.7780 0
M  V30 8 Pb 3.1746 -8.4401 1.8244 0
M  V30 9 Pb 2.9398 -8.4027 -0.1544 0
M  V30 10 Pb 2.4374 -9.1738 0.8926 0
M  V30 11 Pd 2.0326 4.8042 3.4617 0
M  V30 12 Pb 1.6671 5.7130 3.6253 0
M  V30 13 Pb 2.4311 3.9029 3.2973 0
M  V30 14 Pb 2.7318 5.1953 2.8660 0
M  V30 15 Pb 1.2347 4.4027 3.9526 0
M  V30 16 Pd 1.7304 6.2268 -3.5468 0
M  V30 17 Pb 2.4611 6.3152 -2.8707 0
M  V30 18 Pb 0.9296 6.1280 -4.1605 0
M  V30 19 Pb 1.9457 5.2559 -3.6639 0
M  V30 20 Pb 1.4829 7.1836 -3.4221 0
M  V30 21 Pd 3.9797 -1.1198 -1.3261 0
M  V30 22 Pb 4.3527 -1.9050 -0.8314 0
M  V30 23 Pb 4.0074 -0.5825 -0.4833 0
M  V30 24 Pb 3.6364 -0.3486 -1.8666 0
M  V30 25 Pb 3.8931 -1.7013 -2.1324 0
M  V30 26 Pd -4.0341 6.2703 -3.5155 0
M  V30 27 Pb -3.2491 6.1679 -4.1480 0
M  V30 28 Pb -4.7359 6.3349 -2.8075 0
M  V30 29 Pb -4.2163 5.2893 -3.5525 0
M  V30 30 Pb -3.8075 7.2361 -3.4273 0
M  V30 31 Pd -3.8259 4.3214 3.3646 0
M  V30 32 Pb -4.0990 3.3707 3.2030 0
M  V30 33 Pb -4.5806 4.6396 2.7920 0
M  V30 34 Pb -2.9844 4.0367 3.8647 0
M  V30 35 Pb -3.5911 5.2709 3.5361 0
M  V30 36 Pd 0.3887 -4.8063 -2.1199 0
M  V30 37 Pb 1.1678 -4.4965 -2.6667 0
M  V30 38 Pb -0.4113 -5.1202 -1.5970 0
M  V30 39 Pb 0.7436 -5.7396 -2.2151 0
M  V30 40 Pb 0.0835 -3.8503 -2.0829 0
M  V30 41 Pd -0.7144 -7.0692 2.7159 0
M  V30 42 Pb -0.0121 -7.3141 3.3844 0
M  V30 43 Pb -0.6695 -6.1123 2.9897 0
M  V30 44 Pb -1.3180 -6.8058 1.9619 0
M  V30 45 Pb -0.7236 -8.0199 2.4126 0
M  V30 46 Ag 4.1871 -7.0664 0.7641 0
M  V30 47 Fe 4.4419 -4.7879 0.1441 0
M  V30 48 Ag 4.6449 -2.5102 -0.4977 0
M  V30 49 Ag 2.0829 4.5241 -3.7638 0
M  V30 50 Fe 2.7525 2.3834 -2.9767 0
M  V30 51 Ag 3.3957 0.1859 -2.3382 0
M  V30 52 Ag 1.2705 6.3268 3.7353 0
M  V30 53 Fe -1.0586 6.6519 3.7897 0
M  V30 54 Ag -3.2963 5.9380 3.6569 0
M  V30 55 Ag 1.1408 7.8382 -3.3458 0
M  V30 56 Fe -1.1565 8.3708 -3.2963 0
M  V30 57 Ag -3.4647 7.8907 -3.3587 0
M  V30 58 Ag 3.1842 5.4682 2.3361 0
M  V30 59 Fe 3.2247 5.9698 0.0168 0
M  V30 60 Ag 2.9532 6.3637 -2.3078 0
M  V30 61 Ag -3.4891 0.5563 -1.1041 0
M  V30 62 Fe -3.9417 2.5321 -2.3402 0
M  V30 63 Ag -4.3454 4.5527 -3.5196 0
M  V30 64 Ag -1.8384 -1.1058 1.4869 0
M  V30 65 Fe -1.2064 -3.2100 2.3779 0
M  V30 66 Ag -0.6404 -5.3821 3.1408 0
M  V30 67 Ag -5.2021 6.3089 -2.2219 0
M  V30 68 Fe -5.2980 5.6540 0.0578 0
M  V30 69 Ag -5.0765 4.9166 2.3033 0
M  V30 70 Ag 2.7740 3.2513 3.1595 0
M  V30 71 Fe 3.3748 1.5203 1.6490 0
M  V30 72 Ag 4.0065 -0.2373 0.1826 0
M  V30 73 Ba -3.7969 0.3013 1.4162 0
M  V30 74 Ga -4.0439 1.5053 2.2362 0
M  V30 75 Ba -4.3510 2.6707 3.0909 0
M  V30 76 Ba 3.7884 -2.1687 -2.7068 0
M  V30 77 Ga 2.7787 -3.2209 -2.9227 0
M  V30 78 Ba 1.7450 -4.2595 -3.0847 0
M  V30 79 Ba 0.3280 6.0575 -4.6255 0
M  V30 80 Ga -1.1630 6.0807 -4.5706 0
M  V30 81 Ba -2.6544 6.0872 -4.6197 0
M  V30 82 Ba 0.6317 4.0916 4.3149 0
M  V30 83 Ga -0.8617 3.9999 4.2259 0
M  V30 84 Ba -2.3508 3.8304 4.2493 0
M  V30 85 Ba 1.8625 -9.6432 0.9733 0
M  V30 86 Ga 0.5595 -9.2966 1.5562 0
M  V30 87 Ba -0.6454 -8.7224 2.1699 0
M  V30 88 Ba 3.0994 -8.3991 2.5689 0
M  V30 89 Ga 1.8863 -7.9712 3.2893 0
M  V30 90 Ba 0.5801 -7.5146 3.7986 0
M  V30 91 Ba 2.7169 -8.3617 -0.8685 0
M  V30 92 Ga 1.8928 -7.3829 -1.6067 0
M  V30 93 Ba 1.0664 -6.4075 -2.3466 0
M  V30 94 Ba -1.5227 -0.8012 -1.0132 0
M  V30 95 Ga -0.8296 -2.0088 -1.5116 0
M  V30 96 Ba -0.0667 -3.1128 -2.1326 0
M  V30 97 Ba -1.0304 -5.3507 -1.2297 0
M  V30 98 Ga -1.3709 -5.9690 0.0714 0
M  V30 99 Ba -1.7249 -6.5871 1.3690 0
M  V30 END ATOM
M  V30 BEGIN BOND
M  V30 1 1 1 2
M  V30 2 1 1 3
M  V30 3 1 1 4
M  V30 4 1 1 5
M  V30 5 1 6 7
M  V30 6 1 6 8
M  V30 7 1 6 9
M  V30 8 1 6 10
M  V30 9 1 11 12
M  V30 10 1 11 13
M  V30 11 1 11 14
M  V30 12 1 11 15
M  V30 13 1 16 17
M  V30 14 1 16 18
M  V30 15 1 16 19
M  V30 16 1 16 20
M  V30 17 1 21 22
M  V30 18 1 21 23
M  V30 19 1 21 24
M  V30 20 1 21 25
M  V30 21 1 26 27
M  V30 22 1 26 28
M  V30 23 1 26 29
M  V30 24 1 26 30
M  V30 25 1 31 32
M  V30 26 1 31 33
M  V30 27 1 31 34
M  V30 28 1 31 35
M  V30 29 1 36 37
M  V30 30 1 36 38
M  V30 31 1 36 39
M  V30 32 1 36 40
M  V30 33 1 41 42
M  V30 34 1 41 43
M  V30 35 1 41 44
M  V30 36 1 41 45
M  V30 37 1 46 47
M  V30 38 1 47 48
M  V30 39 1 49 50
M  V30 40 1 50 51
M  V30 41 1 52 53
M  V30 42 1 53 54
M  V30 43 1 55 56
M  V30 44 1 56 57
M  V30 45 1 58 59
M  V30 46 1 59 60
M  V30 47 1 61 62
M  V30 48 1 62 63
M  V30 49 1 64 65
M  V30 50 1 65 66
M  V30 51 1 67 68
M  V30 52 1 68 69
M  V30 53 1 70 71
M  V30 54 1 71 72
M  V30 55 1 73 74
M  V30 56 1 74 75
M  V30 57 1 76 77
M  V30 58 1 77 78
M  V30 59 1 79 80
M  V30 60 1 80 81
M  V30 61 1 82 83
M  V30 62 1 83 84
M  V30 63 1 85 86
M  V30 64 1 86 87
M  V30 65 1 88 89
M  V30 66 1 89 90
M  V30 67 1 91 92
M  V30 68 1 92 93
M  V30 69 1 94 95
M  V30 70 1 95 96
M  V30 71 1 97 98
M  V30 72 1 98 99
M  V30 73 1 2 73
M  V30 74 1 3 64
M  V30 75 1 4 61
M  V30 76 1 5 94
M  V30 77 1 7 46
M  V30 78 1 8 88
M  V30 79 1 9 91
M  V30 80 1 10 85
M  V30 81 1 12 52
M  V30 82 1 13 70
M  V30 83 1 14 58
M  V30 84 1 15 82
M  V30 85 1 17 60
M  V30 86 1 18 79
M  V30 87 1 19 49
M  V30 88 1 20 55
M  V30 89 1 22 48
M  V30 90 1 23 72
M  V30 91 1 24 51
M  V30 92 1 25 76
M  V30 93 1 27 81
M  V30 94 1 28 67
M  V30 95 1 29 63
M  V30 96 1 30 57
M  V30 97 1 32 75
M  V30 98 1 33 69
M  V30 99 1 34 84
M  V30 100 1 35 54
M  V30 101 1 37 78
M  V30 102 1 38 97
M  V30 103 1 39 93
M  V30 104 1 40 96
M  V30 105 1 42 90
M  V30 106 1 43 66
M  V30 107 1 44 99
M  V30 108 1 45 87
M  V30 END BOND
M  V30 END CTAB
M  END

$$$$
