
     RDKit          3D

  0  0  0  0  0  0  0  0  0  0999 V3000
M  V30 BEGIN CTAB
M  V30 COUNTS 99 108 0 0 0
M  V30 BEGIN ATOM
M  V30 1 Pd 0.0453 2.5021 -2.6042 0
M  V30 2 Pb 0.5754 3.3457 -2.6317 0
M  V30 3 Pb -0.5737 1.7209 -2.5046 0
M  V30 4 Pb -0.6677 2.9845 -3.1127 0
M  V30 5 Pb 0.7405 2.0910 -2.0066 0
M  V30 6 Pd 2.0110 -7.3625 -3.2041 0
M  V30 7 Pb 2.2333 -7.4711 -2.2337 0
M  V30 8 Pb 1.7821 -7.1776 -4.1568 0
M  V30 9 Pb 2.9614 -7.1400 -3.4058 0
M  V30 10 Pb 1.0259 -7.3900 -3.0280 0
M  V30 11 Pd 1.1337 1.9632 6.3315 0
M  V30 12 Pb 0.4987 2.7269 6.4667 0
M  V30 13 Pb 1.7340 1.2018 6.0824 0
M  V30 14 Pb 0.4701 1.3157 6.6998 0
M  V30 15 Pb 1.7570 2.6260 5.9223 0
M  V30 16 Pd -4.1979 -1.5789 3.3181 0
M  V30 17 Pb -3.9226 -1.6148 4.2749 0
M  V30 18 Pb -4.5809 -0.6663 3.4611 0
M  V30 19 Pb -3.7259 -2.4470 3.1625 0
M  V30 20 Pb -4.3840 -1.4501 2.3447 0
M  V30 21 Pd 2.7054 -4.3450 1.7585 0
M  V30 22 Pb 2.7354 -5.1922 1.2160 0
M  V30 23 Pb 2.7464 -3.5901 2.4195 0
M  V30 24 Pb 1.7667 -4.5712 2.0245 0
M  V30 25 Pb 3.6188 -4.0631 1.4581 0
M  V30 26 Pd -4.1328 4.5296 -0.5491 0
M  V30 27 Pb -4.4627 4.3356 0.3740 0
M  V30 28 Pb -3.9884 5.4973 -0.3215 0
M  V30 29 Pb -3.8004 4.6593 -1.4842 0
M  V30 30 Pb -4.2752 3.5575 -0.7440 0
M  V30 31 Pd -0.3694 7.4789 2.1122 0
M  V30 32 Pb 0.0862 7.5678 1.2301 0
M  V30 33 Pb -1.2512 7.6983 1.6881 0
M  V30 34 Pb 0.4948 7.1803 2.5127 0
M  V30 35 Pb -0.7906 7.2615 2.9940 0
M  V30 36 Pd 4.4926 -1.0447 -2.1567 0
M  V30 37 Pb 4.9029 -1.4793 -1.3513 0
M  V30 38 Pb 4.0419 -0.6562 -2.9611 0
M  V30 39 Pb 4.9117 -1.7772 -2.6902 0
M  V30 40 Pb 4.0125 -0.3686 -1.5971 0
M  V30 41 Pd -1.7827 -2.1609 -5.1080 0
M  V30 42 Pb -1.4167 -2.7745 -5.8021 0
M  V30 43 Pb -2.0634 -1.5912 -4.3380 0
M  V30 44 Pb -1.1682 -1.4378 -5.4150 0
M  V30 45 Pb -2.2180 -2.9635 -4.6970 0
M  V30 46 Ag 0.8737 4.0275 -2.5775 0
M  V30 47 Fe 0.8004 5.9035 -1.1317 0
M  V30 48 Ag 0.4406 7.5064 0.5761 0
M  V30 49 Ag -3.3128 -3.0671 3.0733 0
M  V30 50 Fe -1.1500 -3.9473 2.6327 0
M  V30 51 Ag 1.0493 -4.7278 2.1848 0
M  V30 52 Ag -4.8105 0.0459 3.5120 0
M  V30 53 Fe -4.8289 2.1351 2.3835 0
M  V30 54 Ag -4.7057 4.0878 1.0381 0
M  V30 55 Ag 2.1349 3.1781 5.5893 0
M  V30 56 Fe 1.7921 5.0747 4.2072 0
M  V30 57 Ag 1.1002 6.8792 2.8323 0
M  V30 58 Ag 0.2864 -7.2640 -2.9825 0
M  V30 59 Fe -1.2495 -5.5556 -3.5937 0
M  V30 60 Ag -2.3880 -3.6176 -4.3681 0
M  V30 61 Ag 1.5566 -6.9474 -4.8298 0
M  V30 62 Fe 0.2637 -5.2047 -5.7789 0
M  V30 63 Ag -1.0864 -3.3065 -6.2060 0
M  V30 64 Ag 0.0439 3.3262 6.4691 0
M  V30 65 Fe -0.5973 5.2167 5.1774 0
M  V30 66 Ag -1.0154 7.0001 3.6617 0
M  V30 67 Ag -4.4890 -1.2321 1.6353 0
M  V30 68 Fe -4.4702 0.7213 0.2835 0
M  V30 69 Ag -4.3871 2.8191 -0.8287 0
M  V30 70 Ag -0.0545 0.8274 6.9109 0
M  V30 71 Fe -1.8826 -0.4477 6.1045 0
M  V30 72 Ag -3.6316 -1.5647 4.9597 0
M  V30 73 Ag 3.6156 -6.8186 -3.5667 0
M  V30 74 Fe 4.5973 -4.6676 -3.3884 0
M  V30 75 Ag 5.1775 -2.3999 -3.0086 0
M  V30 76 Ag 3.6402 -0.3803 -3.5318 0
M  V30 77 Fe 1.5601 -0.5356 -4.6648 0
M  V30 78 Ag -0.5997 -0.9710 -5.5471 0
M  V30 79 Ag 2.1613 0.6285 5.8512 0
M  V30 80 Fe 2.4582 -1.2155 4.3782 0
M  V30 81 Ag 2.8730 -3.0807 2.9617 0
M  V30 82 Ba 2.4186 -7.5435 -1.5089 0
M  V30 83 Ga 2.5766 -6.6579 -0.3330 0
M  V30 84 Ba 2.7706 -5.8853 0.9146 0
M  V30 85 Ba 4.2894 -3.7870 1.2579 0
M  V30 86 Ga 4.7536 -2.8240 0.2356 0
M  V30 87 Ba 5.2210 -1.8610 -0.7850 0
M  V30 88 Ba -1.2042 3.3989 -3.4334 0
M  V30 89 Ga -2.3883 4.0618 -2.8530 0
M  V30 90 Ba -3.5486 4.6894 -2.1911 0
M  V30 91 Ba 1.2552 1.8597 -1.5049 0
M  V30 92 Ga 2.4340 0.9751 -1.3848 0
M  V30 93 Ba 3.6196 0.1154 -1.1790 0
M  V30 94 Ba -1.1047 1.1979 -2.4041 0
M  V30 95 Ga -1.6474 0.0074 -3.0863 0
M  V30 96 Ba -2.2251 -1.1894 -3.7276 0
M  V30 97 Ba -3.8961 6.2224 -0.1340 0
M  V30 98 Ga -2.8959 7.0238 0.6066 0
M  V30 99 Ba -1.9057 7.8404 1.3440 0
M  V30 END ATOM
M  V30 BEGIN BOND
M  V30 1 1 1 2
M  V30 2 1 1 3
M  V30 3 1 1 4
M  V30 4 1 1 5
M  V30 5 1 6 7
M  V30 6 1 6 8
M  V30 7 1 6 9
M  V30 8 1 6 10
M  V30 9 1 11 12
M  V30 10 1 11 13
M  V30 11 1 11 14
M  V30 12 1 11 15
M  V30 13 1 16 17
M  V30 14 1 16 18
M  V30 15 1 16 19
M  V30 16 1 16 20
M  V30 17 1 21 22
M  V30 18 1 21 23
M  V30 19 1 21 24
M  V30 20 1 21 25
M  V30 21 1 26 27
M  V30 22 1 26 28
M  V30 23 1 26 29
M  V30 24 1 26 30
M  V30 25 1 31 32
M  V30 26 1 31 33
M  V30 27 1 31 34
M  V30 28 1 31 35
M  V30 29 1 36 37
M  V30 30 1 36 38
M  V30 31 1 36 39
M  V30 32 1 36 40
M  V30 33 1 41 42
M  V30 34 1 41 43
M  V30 35 1 41 44
M  V30 36 1 41 45
M  V30 37 1 46 47
M  V30 38 1 47 48
M  V30 39 1 49 50
M  V30 40 1 50 51
M  V30 41 1 52 53
M  V30 42 1 53 54
M  V30 43 1 55 56
M  V30 44 1 56 57
M  V30 45 1 58 59
M  V30 46 1 59 60
M  V30 47 1 61 62
M  V30 48 1 62 63
M  V30 49 1 64 65
M  V30 50 1 65 66
M  V30 51 1 67 68
M  V30 52 1 68 69
M  V30 53 1 70 71
M  V30 54 1 71 72
M  V30 55 1 73 74
M  V30 56 1 74 75
M  V30 57 1 76 77
M  V30 58 1 77 78
M  V30 59 1 79 80
M  V30 60 1 80 81
M  V30 61 1 82 83
M  V30 62 1 83 84
M  V30 63 1 85 86
M  V30 64 1 86 87
M  V30 65 1 88 89
M  V30 66 1 89 90
M  V30 67 1 91 92
M  V30 68 1 92 93
M  V30 69 1 94 95
M  V30 70 1 95 96
M  V30 71 1 97 98
M  V30 72 1 98 99
M  V30 73 1 2 46
M  V30 74 1 3 94
M  V30 75 1 4 88
M  V30 76 1 5 91
M  V30 77 1 7 82
M  V30 78 1 8 61
M  V30 79 1 9 73
M  V30 80 1 10 58
M  V30 81 1 12 64
M  V30 82 1 13 79
M  V30 83 1 14 70
M  V30 84 1 15 55
M  V30 85 1 17 72
M  V30 86 1 18 52
M  V30 87 1 19 49
M  V30 88 1 20 67
M  V30 89 1 22 84
M  V30 90 1 23 81
M  V30 91 1 24 51
M  V30 92 1 25 85
M  V30 93 1 27 54
M  V30 94 1 28 97
M  V30 95 1 29 90
M  V30 96 1 30 69
M  V30 97 1 32 48
M  V30 98 1 33 99
M  V30 99 1 34 57
M  V30 100 1 35 66
M  V30 101 1 37 87
M  V30 102 1 38 76
M  V30 103 1 39 75
M  V30 104 1 40 93
M  V30 105 1 42 63
M  V30 106 1 43 96
M  V30 107 1 44 78
M  V30 108 1 45 60
M  V30 END BOND
M  V30 END CTAB
M  END

$$$$
