
     RDKit          3D

  0  0  0  0  0  0  0  0  0  0999 V3000
M  V30 BEGIN CTAB
M  V30 COUNTS 99 108 0 0 0
M  V30 BEGIN ATOM
M  V30 1 Pd 6.6201 -1.6716 -1.1587 0
M  V30 2 Pb 7.0007 -1.2894 -1.9958 0
M  V30 3 Pb 6.0584 -2.2997 -1.7030 0
M  V30 4 Pb 7.2160 -1.0691 -0.6270 0
M  V30 5 Pb 6.0542 -1.8453 -0.3542 0
M  V30 6 Pd 7.7927 4.0663 3.8886 0
M  V30 7 Pb 7.4912 4.6321 3.1219 0
M  V30 8 Pb 7.8642 3.4599 4.6799 0
M  V30 9 Pb 8.2396 3.4077 3.2854 0
M  V30 10 Pb 7.2710 4.6894 4.4821 0
M  V30 11 Pd -8.3517 -0.6426 -0.7046 0
M  V30 12 Pb -8.6724 -0.3700 0.2015 0
M  V30 13 Pb -8.0015 -1.0637 -1.5400 0
M  V30 14 Pb -7.5288 -0.0844 -0.6000 0
M  V30 15 Pb -9.1079 -1.3204 -0.7244 0
M  V30 16 Pd 2.5200 4.5037 5.4760 0
M  V30 17 Pb 2.8036 3.8803 6.2039 0
M  V30 18 Pb 2.4302 5.0513 4.6447 0
M  V30 19 Pb 1.7042 3.9658 5.2682 0
M  V30 20 Pb 3.3763 5.0050 5.6475 0
M  V30 21 Pd 0.3150 -2.5487 -4.9450 0
M  V30 22 Pb 1.0783 -3.1802 -4.8239 0
M  V30 23 Pb -0.3237 -1.7762 -4.9302 0
M  V30 24 Pb -0.2005 -3.0506 -4.2511 0
M  V30 25 Pb 0.7904 -2.1009 -5.6970 0
M  V30 26 Pd 0.6855 2.1249 0.9508 0
M  V30 27 Pb 1.2883 1.3505 1.1694 0
M  V30 28 Pb 0.4102 2.1808 1.9125 0
M  V30 29 Pb -0.1052 1.6230 1.3034 0
M  V30 30 Pb 1.2886 2.4286 0.2079 0
M  V30 31 Pd 2.2228 1.9003 -4.7346 0
M  V30 32 Pb 2.1886 1.4162 -5.6020 0
M  V30 33 Pb 1.2307 1.7616 -4.6515 0
M  V30 34 Pb 2.3007 2.3541 -3.8427 0
M  V30 35 Pb 3.2188 1.9065 -4.8219 0
M  V30 36 Pd -2.9325 -1.8262 -0.4719 0
M  V30 37 Pb -3.5979 -1.0902 -0.3087 0
M  V30 38 Pb -3.3405 -2.5014 0.1487 0
M  V30 39 Pb -2.6030 -2.5892 -1.0231 0
M  V30 40 Pb -2.8020 -1.2197 0.3094 0
M  V30 41 Pd -8.8354 -5.6435 1.1317 0
M  V30 42 Pb -8.4888 -5.9092 0.2330 0
M  V30 43 Pb -9.1314 -5.2135 1.9834 0
M  V30 44 Pb -7.9575 -5.8776 1.5383 0
M  V30 45 Pb -9.5579 -5.1232 0.6580 0
M  V30 46 Ag 7.1126 -0.8733 -2.6043 0
M  V30 47 Fe 5.7228 0.5395 -3.9067 0
M  V30 48 Ag 3.9581 1.7944 -4.8752 0
M  V30 49 Ag 7.0438 5.0339 2.6776 0
M  V30 50 Fe 4.7346 5.4876 2.9555 0
M  V30 51 Ag 2.6143 5.4008 4.0100 0
M  V30 52 Ag 5.6546 -2.7756 -2.1246 0
M  V30 53 Fe 3.7103 -3.2527 -3.4053 0
M  V30 54 Ag 1.7030 -3.5504 -4.6419 0
M  V30 55 Ag -7.7870 -1.5779 -2.0348 0
M  V30 56 Fe -7.8123 -3.9210 -1.7293 0
M  V30 57 Ag -8.2244 -5.8733 -0.4629 0
M  V30 58 Ag -8.9117 -0.4025 0.9065 0
M  V30 59 Fe -9.2856 -2.3533 2.1864 0
M  V30 60 Ag -9.3163 -4.6968 2.4875 0
M  V30 61 Ag 5.5403 -1.8409 0.1921 0
M  V30 62 Fe 3.6230 -0.5974 0.8520 0
M  V30 63 Ag 1.7372 0.7678 1.3414 0
M  V30 64 Ag -3.5990 -3.0597 0.5848 0
M  V30 65 Fe -5.3410 -4.5287 1.2598 0
M  V30 66 Ag -7.2452 -5.8581 1.7618 0
M  V30 67 Ag 7.6683 3.0710 5.2876 0
M  V30 68 Fe 5.5401 2.9563 6.3234 0
M  V30 69 Ag 3.2393 3.4390 6.6215 0
M  V30 70 Ag 7.6876 -0.6263 -0.2467 0
M  V30 71 Fe 8.1242 1.1325 1.2877 0
M  V30 72 Ag 8.5331 2.8944 2.8261 0
M  V30 73 Ba -6.8909 0.2879 -0.4674 0
M  V30 74 Ga -5.4729 -0.1187 -0.3569 0
M  V30 75 Ba -4.0452 -0.4856 -0.2348 0
M  V30 76 Ba 1.1093 3.5439 5.0967 0
M  V30 77 Ga 0.6441 2.8871 3.8604 0
M  V30 78 Ba 0.1767 2.2288 2.6256 0
M  V30 79 Ba -9.6603 -1.8513 -0.7177 0
M  V30 80 Ga -9.8387 -3.2468 -0.2135 0
M  V30 81 Ba -10.0192 -4.6423 0.2897 0
M  V30 82 Ba -0.7012 -1.1259 -4.8760 0
M  V30 83 Ga -0.1612 0.2499 -4.7529 0
M  V30 84 Ba 0.4987 1.5733 -4.6368 0
M  V30 85 Ba -0.5850 -3.4766 -3.7685 0
M  V30 86 Ga -1.4613 -3.2974 -2.5982 0
M  V30 87 Ba -2.3419 -3.1624 -1.4251 0
M  V30 88 Ba 6.8614 5.1470 4.9238 0
M  V30 89 Ga 5.4394 5.2464 5.3372 0
M  V30 90 Ba 4.0256 5.3742 5.7701 0
M  V30 91 Ba 1.1132 -1.7373 -6.2626 0
M  V30 92 Ga 1.6625 -0.3795 -6.3213 0
M  V30 93 Ba 2.1707 0.9909 -6.2115 0
M  V30 94 Ba -0.7055 1.2882 1.6057 0
M  V30 95 Ga -1.6884 0.2547 1.2366 0
M  V30 96 Ba -2.6869 -0.7745 0.8988 0
M  V30 97 Ba 1.7346 2.7361 -0.3164 0
M  V30 98 Ga 2.0367 2.6613 -1.7631 0
M  V30 99 Ba 2.4390 2.6982 -3.1866 0
M  V30 END ATOM
M  V30 BEGIN BOND
M  V30 1 1 1 2
M  V30 2 1 1 3
M  V30 3 1 1 4
M  V30 4 1 1 5
M  V30 5 1 6 7
M  V30 6 1 6 8
M  V30 7 1 6 9
M  V30 8 1 6 10
M  V30 9 1 11 12
M  V30 10 1 11 13
M  V30 11 1 11 14
M  V30 12 1 11 15
M  V30 13 1 16 17
M  V30 14 1 16 18
M  V30 15 1 16 19
M  V30 16 1 16 20
M  V30 17 1 21 22
M  V30 18 1 21 23
M  V30 19 1 21 24
M  V30 20 1 21 25
M  V30 21 1 26 27
M  V30 22 1 26 28
M  V30 23 1 26 29
M  V30 24 1 26 30
M  V30 25 1 31 32
M  V30 26 1 31 33
M  V30 27 1 31 34
M  V30 28 1 31 35
M  V30 29 1 36 37
M  V30 30 1 36 38
M  V30 31 1 36 39
M  V30 32 1 36 40
M  V30 33 1 41 42
M  V30 34 1 41 43
M  V30 35 1 41 44
M  V30 36 1 41 45
M  V30 37 1 46 47
M  V30 38 1 47 48
M  V30 39 1 49 50
M  V30 40 1 50 51
M  V30 41 1 52 53
M  V30 42 1 53 54
M  V30 43 1 55 56
M  V30 44 1 56 57
M  V30 45 1 58 59
M  V30 46 1 59 60
M  V30 47 1 61 62
M  V30 48 1 62 63
M  V30 49 1 64 65
M  V30 50 1 65 66
M  V30 51 1 67 68
M  V30 52 1 68 69
M  V30 53 1 70 71
M  V30 54 1 71 72
M  V30 55 1 73 74
M  V30 56 1 74 75
M  V30 57 1 76 77
M  V30 58 1 77 78
M  V30 59 1 79 80
M  V30 60 1 80 81
M  V30 61 1 82 83
M  V30 62 1 83 84
M  V30 63 1 85 86
M  V30 64 1 86 87
M  V30 65 1 88 89
M  V30 66 1 89 90
M  V30 67 1 91 92
M  V30 68 1 92 93
M  V30 69 1 94 95
M  V30 70 1 95 96
M  V30 71 1 97 98
M  V30 72 1 98 99
M  V30 73 1 2 46
M  V30 74 1 3 52
M  V30 75 1 4 70
M  V30 76 1 5 61
M  V30 77 1 7 49
M  V30 78 1 8 67
M  V30 79 1 9 72
M  V30 80 1 10 88
M  V30 81 1 12 58
M  V30 82 1 13 55
M  V30 83 1 14 73
M  V30 84 1 15 79
M  V30 85 1 17 69
M  V30 86 1 18 51
M  V30 87 1 19 76
M  V30 88 1 20 90
M  V30 89 1 22 54
M  V30 90 1 23 82
M  V30 91 1 24 85
M  V30 92 1 25 91
M  V30 93 1 27 63
M  V30 94 1 28 78
M  V30 95 1 29 94
M  V30 96 1 30 97
M  V30 97 1 32 93
M  V30 98 1 33 84
M  V30 99 1 34 99
M  V30 100 1 35 48
M  V30 101 1 37 75
M  V30 102 1 38 64
M  V30 103 1 39 87
M  V30 104 1 40 96
M  V30 105 1 42 57
M  V30 106 1 43 60
M  V30 107 1 44 66
M  V30 108 1 45 81
M  V30 END BOND
M  V30 END CTAB
M  END

$$$$
