
     RDKit          3D

  0  0  0  0  0  0  0  0  0  0999 V3000
M  V30 BEGIN CTAB
M  V30 COUNTS 99 108 0 0 0
M  V30 BEGIN ATOM
M  V30 1 Pd 3.2963 2.9106 -3.5370 0
M  V30 2 Pb 2.2928 2.8813 -3.5147 0
M  V30 3 Pb 4.2944 2.9495 -3.5214 0
M  V30 4 Pb 3.2832 3.9091 -3.4607 0
M  V30 5 Pb 3.3411 1.9124 -3.5580 0
M  V30 6 Pd 5.7793 5.3205 -0.0787 0
M  V30 7 Pb 5.2696 5.7570 0.6618 0
M  V30 8 Pb 5.2626 5.8277 -0.7683 0
M  V30 9 Pb 6.2483 4.8405 -0.8179 0
M  V30 10 Pb 6.2095 4.7264 0.5992 0
M  V30 11 Pd -3.0314 -2.4263 -3.9935 0
M  V30 12 Pb -3.7290 -3.0748 -3.7082 0
M  V30 13 Pb -2.3587 -1.7110 -4.1781 0
M  V30 14 Pb -2.3613 -3.1643 -4.1095 0
M  V30 15 Pb -3.7189 -1.7141 -3.8583 0
M  V30 16 Pd 0.2227 -5.7126 -0.8392 0
M  V30 17 Pb 0.4886 -5.7796 0.1192 0
M  V30 18 Pb -0.5368 -6.3133 -0.5972 0
M  V30 19 Pb 0.8610 -4.9480 -0.9118 0
M  V30 20 Pb -0.0518 -5.6150 -1.7997 0
M  V30 21 Pd -3.8016 1.3486 -0.2515 0
M  V30 22 Pb -4.5038 1.0311 0.3945 0
M  V30 23 Pb -3.2678 1.7061 0.5134 0
M  V30 24 Pb -4.3425 1.0231 -1.0256 0
M  V30 25 Pb -3.1203 1.6818 -0.9115 0
M  V30 26 Pd 3.0272 2.7441 3.0885 0
M  V30 27 Pb 3.1363 3.7357 3.1521 0
M  V30 28 Pb 2.9076 1.7593 2.9609 0
M  V30 29 Pb 4.0225 2.6662 3.0164 0
M  V30 30 Pb 2.0349 2.8343 3.1474 0
M  V30 31 Pd -5.2537 -3.1905 2.6204 0
M  V30 32 Pb -5.6140 -2.2596 2.5275 0
M  V30 33 Pb -4.8485 -2.9248 3.4988 0
M  V30 34 Pb -5.6343 -3.4559 1.7389 0
M  V30 35 Pb -4.8523 -4.1088 2.6101 0
M  V30 36 Pd 0.5502 -0.0170 -0.8006 0
M  V30 37 Pb -0.1715 0.4417 -0.2786 0
M  V30 38 Pb 0.1217 0.1913 -1.6817 0
M  V30 39 Pb 1.2901 -0.4173 -1.3346 0
M  V30 40 Pb 1.0180 -0.2486 0.0558 0
M  V30 41 Pd -0.6764 -0.9911 3.8229 0
M  V30 42 Pb 0.0391 -0.9643 3.1207 0
M  V30 43 Pb -0.2735 -1.8455 4.1348 0
M  V30 44 Pb -1.4496 -1.1252 4.4423 0
M  V30 45 Pb -1.1029 -0.1993 3.3924 0
M  V30 46 Ag 1.2338 -4.3089 -0.7930 0
M  V30 47 Fe 1.0690 -2.5439 0.7898 0
M  V30 48 Ag 0.5268 -1.0449 2.5530 0
M  V30 49 Ag -2.8781 1.9856 1.0886 0
M  V30 50 Fe -0.8023 2.4421 2.1446 0
M  V30 51 Ag 1.2889 2.8843 3.1758 0
M  V30 52 Ag -4.2788 -3.4559 -3.3834 0
M  V30 53 Fe -5.2080 -3.7084 -1.2202 0
M  V30 54 Ag -5.8336 -3.7032 1.0639 0
M  V30 55 Ag 1.5389 2.8741 -3.4953 0
M  V30 56 Fe -0.5264 2.3796 -2.4203 0
M  V30 57 Ag -2.6531 1.9343 -1.4486 0
M  V30 58 Ag 0.6454 -5.7573 0.8483 0
M  V30 59 Fe 0.4479 -4.3148 2.7150 0
M  V30 60 Ag 0.0217 -2.5244 4.2031 0
M  V30 61 Ag -1.1162 -6.6237 -0.2365 0
M  V30 62 Fe -2.9105 -5.8849 1.1374 0
M  V30 63 Ag -4.5712 -4.7858 2.4367 0
M  V30 64 Ba -1.8857 -3.7413 -4.2036 0
M  V30 65 Ga -1.0634 -4.6212 -3.3436 0
M  V30 66 Ba -0.2248 -5.5277 -2.5280 0
M  V30 67 Ba -0.6799 0.7973 0.1463 0
M  V30 68 Ga -1.0817 0.6250 1.5546 0
M  V30 69 Ba -1.3916 0.3439 2.9683 0
M  V30 70 Ba 6.4524 4.2424 1.1164 0
M  V30 71 Ga 5.6653 3.4234 2.0570 0
M  V30 72 Ba 4.7702 2.6596 2.9463 0
M  V30 73 Ba 5.0385 3.0111 -3.4649 0
M  V30 74 Ga 5.8518 3.7171 -2.4608 0
M  V30 75 Ba 6.5402 4.4618 -1.3934 0
M  V30 76 Ba -4.5602 -2.6734 4.1480 0
M  V30 77 Ga -3.3100 -1.9849 4.5316 0
M  V30 78 Ba -2.0435 -1.3007 4.8659 0
M  V30 79 Ba 3.3219 4.6532 -3.3628 0
M  V30 80 Ga 4.0597 5.4501 -2.3628 0
M  V30 81 Ba 4.8417 6.1292 -1.3109 0
M  V30 82 Ba 3.3825 1.1651 -3.5210 0
M  V30 83 Ga 2.6481 0.2016 -2.6858 0
M  V30 84 Ba 1.8344 -0.6395 -1.7941 0
M  V30 85 Ba 4.8733 6.0241 1.2390 0
M  V30 86 Ga 4.0443 5.3069 2.2244 0
M  V30 87 Ba 3.2474 4.4770 3.1457 0
M  V30 88 Ba 2.7848 1.0296 2.8370 0
M  V30 89 Ga 2.0837 0.2925 1.7656 0
M  V30 90 Ba 1.3799 -0.4348 0.6893 0
M  V30 91 Ba -5.0436 0.8232 0.8803 0
M  V30 92 Ga -5.4374 -0.3779 1.6511 0
M  V30 93 Ba -5.8661 -1.5559 2.4388 0
M  V30 94 Ba -4.2545 -1.2053 -3.7343 0
M  V30 95 Ga -4.4981 -0.1990 -2.6857 0
M  V30 96 Ba -4.7270 0.8027 -1.6294 0
M  V30 97 Ba -1.9087 -1.1164 -4.2558 0
M  V30 98 Ga -1.0128 -0.4008 -3.3252 0
M  V30 99 Ba -0.1216 0.3066 -2.3840 0
M  V30 END ATOM
M  V30 BEGIN BOND
M  V30 1 1 1 2
M  V30 2 1 1 3
M  V30 3 1 1 4
M  V30 4 1 1 5
M  V30 5 1 6 7
M  V30 6 1 6 8
M  V30 7 1 6 9
M  V30 8 1 6 10
M  V30 9 1 11 12
M  V30 10 1 11 13
M  V30 11 1 11 14
M  V30 12 1 11 15
M  V30 13 1 16 17
M  V30 14 1 16 18
M  V30 15 1 16 19
M  V30 16 1 16 20
M  V30 17 1 21 22
M  V30 18 1 21 23
M  V30 19 1 21 24
M  V30 20 1 21 25
M  V30 21 1 26 27
M  V30 22 1 26 28
M  V30 23 1 26 29
M  V30 24 1 26 30
M  V30 25 1 31 32
M  V30 26 1 31 33
M  V30 27 1 31 34
M  V30 28 1 31 35
M  V30 29 1 36 37
M  V30 30 1 36 38
M  V30 31 1 36 39
M  V30 32 1 36 40
M  V30 33 1 41 42
M  V30 34 1 41 43
M  V30 35 1 41 44
M  V30 36 1 41 45
M  V30 37 1 46 47
M  V30 38 1 47 48
M  V30 39 1 49 50
M  V30 40 1 50 51
M  V30 41 1 52 53
M  V30 42 1 53 54
M  V30 43 1 55 56
M  V30 44 1 56 57
M  V30 45 1 58 59
M  V30 46 1 59 60
M  V30 47 1 61 62
M  V30 48 1 62 63
M  V30 49 1 64 65
M  V30 50 1 65 66
M  V30 51 1 67 68
M  V30 52 1 68 69
M  V30 53 1 70 71
M  V30 54 1 71 72
M  V30 55 1 73 74
M  V30 56 1 74 75
M  V30 57 1 76 77
M  V30 58 1 77 78
M  V30 59 1 79 80
M  V30 60 1 80 81
M  V30 61 1 82 83
M  V30 62 1 83 84
M  V30 63 1 85 86
M  V30 64 1 86 87
M  V30 65 1 88 89
M  V30 66 1 89 90
M  V30 67 1 91 92
M  V30 68 1 92 93
M  V30 69 1 94 95
M  V30 70 1 95 96
M  V30 71 1 97 98
M  V30 72 1 98 99
M  V30 73 1 2 55
M  V30 74 1 3 73
M  V30 75 1 4 79
M  V30 76 1 5 82
M  V30 77 1 7 85
M  V30 78 1 8 81
M  V30 79 1 9 75
M  V30 80 1 10 70
M  V30 81 1 12 52
M  V30 82 1 13 97
M  V30 83 1 14 64
M  V30 84 1 15 94
M  V30 85 1 17 58
M  V30 86 1 18 61
M  V30 87 1 19 46
M  V30 88 1 20 66
M  V30 89 1 22 91
M  V30 90 1 23 49
M  V30 91 1 24 96
M  V30 92 1 25 57
M  V30 93 1 27 87
M  V30 94 1 28 88
M  V30 95 1 29 72
M  V30 96 1 30 51
M  V30 97 1 32 93
M  V30 98 1 33 76
M  V30 99 1 34 54
M  V30 100 1 35 63
M  V30 101 1 37 67
M  V30 102 1 38 99
M  V30 103 1 39 84
M  V30 104 1 40 90
M  V30 105 1 42 48
M  V30 106 1 43 60
M  V30 107 1 44 78
M  V30 108 1 45 69
M  V30 END BOND
M  V30 END CTAB
M  END

$$$$
