
     RDKit          3D

  0  0  0  0  0  0  0  0  0  0999 V3000
M  V30 BEGIN CTAB
M  V30 COUNTS 99 108 0 0 0
M  V30 BEGIN ATOM
M  V30 1 Pd 4.0596 1.4783 7.1882 0
M  V30 2 Pb 4.6970 0.8132 6.8139 0
M  V30 3 Pb 4.1729 2.0531 6.3707 0
M  V30 4 Pb 3.3149 2.0370 7.5448 0
M  V30 5 Pb 3.9156 0.8480 7.9532 0
M  V30 6 Pd -6.2756 -1.4605 -4.8061 0
M  V30 7 Pb -5.8490 -0.9572 -5.5518 0
M  V30 8 Pb -5.9956 -0.7537 -4.1550 0
M  V30 9 Pb -6.4707 -2.1063 -4.0569 0
M  V30 10 Pb -6.5510 -2.1561 -5.4665 0
M  V30 11 Pd 0.0727 -0.9209 7.5374 0
M  V30 12 Pb -0.5162 -0.5486 6.8297 0
M  V30 13 Pb 0.0399 -1.8374 7.1272 0
M  V30 14 Pb 0.1461 0.0127 7.8950 0
M  V30 15 Pb 0.7560 -1.2002 8.2080 0
M  V30 16 Pd 1.7556 3.7646 2.1360 0
M  V30 17 Pb 2.4890 3.5183 2.7834 0
M  V30 18 Pb 1.0346 3.3471 2.6833 0
M  V30 19 Pb 2.4722 4.0847 1.5195 0
M  V30 20 Pb 1.0317 4.1298 1.5445 0
M  V30 21 Pd -1.2063 4.0483 -2.9729 0
M  V30 22 Pb -1.2978 3.7450 -3.9192 0
M  V30 23 Pb -0.3498 4.4765 -3.2505 0
M  V30 24 Pb -2.0542 3.5790 -2.7236 0
M  V30 25 Pb -1.1074 4.3809 -2.0335 0
M  V30 26 Pd -0.8817 -0.6434 -5.8536 0
M  V30 27 Pb -1.8318 -0.6799 -6.1851 0
M  V30 28 Pb 0.0914 -0.5475 -5.6261 0
M  V30 29 Pb -0.9555 0.3348 -6.0359 0
M  V30 30 Pb -0.7776 -1.6309 -5.6756 0
M  V30 31 Pd -2.9301 -4.9844 -3.1394 0
M  V30 32 Pb -3.8784 -4.8779 -2.8096 0
M  V30 33 Pb -2.6209 -4.4565 -2.3502 0
M  V30 34 Pb -2.0468 -4.8905 -3.5962 0
M  V30 35 Pb -3.2590 -5.5339 -3.9047 0
M  V30 36 Pd 3.4015 1.9531 -2.7145 0
M  V30 37 Pb 3.7066 2.5812 -1.9956 0
M  V30 38 Pb 3.1284 1.3365 -3.4580 0
M  V30 39 Pb 3.6521 1.1414 -2.1866 0
M  V30 40 Pb 3.1369 2.7689 -3.2241 0
M  V30 41 Pd 1.8819 -3.2971 2.8652 0
M  V30 42 Pb 2.7406 -3.2933 3.3695 0
M  V30 43 Pb 1.3712 -3.5696 3.6873 0
M  V30 44 Pb 1.0336 -3.2223 2.3439 0
M  V30 45 Pb 2.4033 -2.9883 2.0694 0
M  V30 46 Ag -5.7826 -0.2126 -3.6798 0
M  V30 47 Fe -4.2445 1.5014 -3.0955 0
M  V30 48 Ag -2.6818 3.2057 -2.5492 0
M  V30 49 Ag 5.0410 0.2230 6.5203 0
M  V30 50 Fe 4.4465 -1.5958 5.1274 0
M  V30 51 Ag 3.3876 -3.1782 3.7212 0
M  V30 52 Ag -0.8544 -0.1564 6.2970 0
M  V30 53 Fe -0.3061 1.4240 4.6194 0
M  V30 54 Ag 0.4710 2.9877 3.0176 0
M  V30 55 Ag -2.4361 -4.0750 -1.7331 0
M  V30 56 Fe -0.9895 -3.6216 0.0932 0
M  V30 57 Ag 0.4111 -3.1170 1.9417 0
M  V30 58 Ag 3.8169 0.5055 -1.8239 0
M  V30 59 Fe 3.3141 -1.1107 -0.1572 0
M  V30 60 Ag 2.8280 -2.7379 1.5036 0
M  V30 61 Ag -6.6143 -2.7626 -5.8889 0
M  V30 62 Fe -5.3285 -4.7200 -5.6863 0
M  V30 63 Ag -3.6225 -5.8083 -4.4903 0
M  V30 64 Ba 0.2999 4.7347 -3.5141 0
M  V30 65 Ga 1.6342 4.1160 -3.5504 0
M  V30 66 Ba 2.9282 3.4160 -3.5355 0
M  V30 67 Ba 3.7709 0.3343 8.4824 0
M  V30 68 Ga 2.5860 -0.5253 8.6587 0
M  V30 69 Ba 1.3279 -1.2932 8.6803 0
M  V30 70 Ba 3.0348 4.2550 1.0563 0
M  V30 71 Ga 3.4832 3.6811 -0.2274 0
M  V30 72 Ba 3.9364 3.1081 -1.5099 0
M  V30 73 Ba -6.5273 -2.6435 -3.5223 0
M  V30 74 Ga -5.5777 -3.6893 -3.0460 0
M  V30 75 Ba -4.5933 -4.7177 -2.6037 0
M  V30 76 Ba -0.5857 -2.3516 -5.5334 0
M  V30 77 Ga -1.0260 -3.5400 -4.7651 0
M  V30 78 Ba -1.4394 -4.7485 -4.0131 0
M  V30 79 Ba -5.4351 -0.6824 -6.1104 0
M  V30 80 Ga -3.9664 -0.6258 -6.2856 0
M  V30 81 Ba -2.5053 -0.5584 -6.5118 0
M  V30 82 Ba 2.6901 2.3316 7.8298 0
M  V30 83 Ga 1.4203 1.6044 8.0117 0
M  V30 84 Ba 0.2404 0.7256 8.1158 0
M  V30 85 Ba 0.0197 -2.5214 6.8087 0
M  V30 86 Ga 0.5122 -3.1315 5.5512 0
M  V30 87 Ba 0.9890 -3.7765 4.3052 0
M  V30 88 Ba 0.8373 -0.5009 -5.5281 0
M  V30 89 Ga 1.8575 0.2093 -4.7258 0
M  V30 90 Ba 2.9860 0.8378 -4.0046 0
M  V30 91 Ba 0.4607 4.4631 1.1828 0
M  V30 92 Ga -0.2551 4.5042 -0.1095 0
M  V30 93 Ba -1.0656 4.6571 -1.3361 0
M  V30 94 Ba -1.3272 3.5482 -4.6404 0
M  V30 95 Ga -1.1894 2.2977 -5.4051 0
M  V30 96 Ba -1.0549 1.0597 -6.1906 0
M  V30 97 Ba 4.3063 2.4443 5.7382 0
M  V30 98 Ga 3.6193 2.9069 4.5070 0
M  V30 99 Ba 3.1019 3.4434 3.2242 0
M  V30 END ATOM
M  V30 BEGIN BOND
M  V30 1 1 1 2
M  V30 2 1 1 3
M  V30 3 1 1 4
M  V30 4 1 1 5
M  V30 5 1 6 7
M  V30 6 1 6 8
M  V30 7 1 6 9
M  V30 8 1 6 10
M  V30 9 1 11 12
M  V30 10 1 11 13
M  V30 11 1 11 14
M  V30 12 1 11 15
M  V30 13 1 16 17
M  V30 14 1 16 18
M  V30 15 1 16 19
M  V30 16 1 16 20
M  V30 17 1 21 22
M  V30 18 1 21 23
M  V30 19 1 21 24
M  V30 20 1 21 25
M  V30 21 1 26 27
M  V30 22 1 26 28
M  V30 23 1 26 29
M  V30 24 1 26 30
M  V30 25 1 31 32
M  V30 26 1 31 33
M  V30 27 1 31 34
M  V30 28 1 31 35
M  V30 29 1 36 37
M  V30 30 1 36 38
M  V30 31 1 36 39
M  V30 32 1 36 40
M  V30 33 1 41 42
M  V30 34 1 41 43
M  V30 35 1 41 44
M  V30 36 1 41 45
M  V30 37 1 46 47
M  V30 38 1 47 48
M  V30 39 1 49 50
M  V30 40 1 50 51
M  V30 41 1 52 53
M  V30 42 1 53 54
M  V30 43 1 55 56
M  V30 44 1 56 57
M  V30 45 1 58 59
M  V30 46 1 59 60
M  V30 47 1 61 62
M  V30 48 1 62 63
M  V30 49 1 64 65
M  V30 50 1 65 66
M  V30 51 1 67 68
M  V30 52 1 68 69
M  V30 53 1 70 71
M  V30 54 1 71 72
M  V30 55 1 73 74
M  V30 56 1 74 75
M  V30 57 1 76 77
M  V30 58 1 77 78
M  V30 59 1 79 80
M  V30 60 1 80 81
M  V30 61 1 82 83
M  V30 62 1 83 84
M  V30 63 1 85 86
M  V30 64 1 86 87
M  V30 65 1 88 89
M  V30 66 1 89 90
M  V30 67 1 91 92
M  V30 68 1 92 93
M  V30 69 1 94 95
M  V30 70 1 95 96
M  V30 71 1 97 98
M  V30 72 1 98 99
M  V30 73 1 2 49
M  V30 74 1 3 97
M  V30 75 1 4 82
M  V30 76 1 5 67
M  V30 77 1 7 79
M  V30 78 1 8 46
M  V30 79 1 9 73
M  V30 80 1 10 61
M  V30 81 1 12 52
M  V30 82 1 13 85
M  V30 83 1 14 84
M  V30 84 1 15 69
M  V30 85 1 17 99
M  V30 86 1 18 54
M  V30 87 1 19 70
M  V30 88 1 20 91
M  V30 89 1 22 94
M  V30 90 1 23 64
M  V30 91 1 24 48
M  V30 92 1 25 93
M  V30 93 1 27 81
M  V30 94 1 28 88
M  V30 95 1 29 96
M  V30 96 1 30 76
M  V30 97 1 32 75
M  V30 98 1 33 55
M  V30 99 1 34 78
M  V30 100 1 35 63
M  V30 101 1 37 72
M  V30 102 1 38 90
M  V30 103 1 39 58
M  V30 104 1 40 66
M  V30 105 1 42 51
M  V30 106 1 43 87
M  V30 107 1 44 57
M  V30 108 1 45 60
M  V30 END BOND
M  V30 END CTAB
M  END

$$$$
