
     RDKit          3D

  0  0  0  0  0  0  0  0  0  0999 V3000
M  V30 BEGIN CTAB
M  V30 COUNTS 99 108 0 0 0
M  V30 BEGIN ATOM
M  V30 1 Pd -0.6222 3.4058 0.4623 0
M  V30 2 Pb -1.5598 3.7328 0.5568 0
M  V30 3 Pb 0.2829 2.9768 0.4229 0
M  V30 4 Pb -0.5441 3.5053 1.4536 0
M  V30 5 Pb -0.7933 3.2430 -0.5132 0
M  V30 6 Pd 8.0780 1.9012 -2.4006 0
M  V30 7 Pb 7.5891 1.0401 -2.5563 0
M  V30 8 Pb 8.0589 1.7668 -1.3986 0
M  V30 9 Pb 7.8945 2.1496 -3.3484 0
M  V30 10 Pb 8.5665 2.7580 -2.2509 0
M  V30 11 Pd -5.2723 -3.8764 -0.8440 0
M  V30 12 Pb -5.8618 -3.9122 -0.0368 0
M  V30 13 Pb -4.6818 -3.8215 -1.6512 0
M  V30 14 Pb -4.8412 -4.7283 -0.5488 0
M  V30 15 Pb -5.7168 -3.0224 -1.1115 0
M  V30 16 Pd -1.0060 -5.4610 2.3885 0
M  V30 17 Pb -1.7878 -5.8369 1.8891 0
M  V30 18 Pb -1.5967 -5.1411 3.1590 0
M  V30 19 Pb -0.4154 -5.6772 1.6126 0
M  V30 20 Pb -0.2023 -5.1398 2.8722 0
M  V30 21 Pd 1.6465 -2.4182 -4.0704 0
M  V30 22 Pb 2.6203 -2.2329 -3.9170 0
M  V30 23 Pb 0.6762 -2.6285 -4.1996 0
M  V30 24 Pb 1.6932 -3.1693 -3.4113 0
M  V30 25 Pb 1.5827 -1.7028 -4.7704 0
M  V30 26 Pd -2.5469 -0.8773 5.8198 0
M  V30 27 Pb -2.7177 -1.8675 5.6409 0
M  V30 28 Pb -3.5246 -0.6580 5.7747 0
M  V30 29 Pb -2.3103 0.0919 5.8549 0
M  V30 30 Pb -1.5794 -1.0672 5.9237 0
M  V30 31 Pd -6.7736 -0.0318 2.2173 0
M  V30 32 Pb -6.4881 0.9170 2.0916 0
M  V30 33 Pb -6.6198 0.0224 3.2044 0
M  V30 34 Pb -6.8920 -0.1092 1.2280 0
M  V30 35 Pb -7.0217 -0.9950 2.3083 0
M  V30 36 Pd 1.5382 3.1538 -4.7469 0
M  V30 37 Pb 1.4341 2.3368 -5.3148 0
M  V30 38 Pb 1.6459 3.9396 -4.1386 0
M  V30 39 Pb 2.4598 3.2651 -5.1212 0
M  V30 40 Pb 0.6398 3.0136 -4.3350 0
M  V30 41 Pd 4.9598 4.2447 1.2710 0
M  V30 42 Pb 5.6930 3.5564 1.3834 0
M  V30 43 Pb 4.2927 3.5117 1.1320 0
M  V30 44 Pb 4.2787 4.8916 0.9403 0
M  V30 45 Pb 5.6471 4.9663 1.3120 0
M  V30 46 Ag 7.2334 0.3938 -2.7046 0
M  V30 47 Fe 5.2668 -0.8323 -3.2377 0
M  V30 48 Ag 3.3535 -2.1395 -3.7724 0
M  V30 49 Ag -2.2787 3.8894 0.6880 0
M  V30 50 Fe -4.3275 2.8707 1.3149 0
M  V30 51 Ag -6.2327 1.6054 1.9456 0
M  V30 52 Ag 0.0408 -5.7697 1.0260 0
M  V30 53 Fe 0.8985 -4.8001 -0.9648 0
M  V30 54 Ag 1.7016 -3.7519 -2.9384 0
M  V30 55 Ag 8.8213 3.4157 -2.0168 0
M  V30 56 Fe 7.9225 4.8680 -0.3941 0
M  V30 57 Ag 6.2431 5.3854 1.1738 0
M  V30 58 Ag 0.3228 -4.8211 3.2808 0
M  V30 59 Fe 0.2323 -3.0120 4.7774 0
M  V30 60 Ag -0.8755 -1.2885 5.9281 0
M  V30 61 Ag 7.5993 2.3757 -3.9963 0
M  V30 62 Fe 5.4437 2.8788 -4.8531 0
M  V30 63 Ag 3.1652 3.2905 -5.3770 0
M  V30 64 Ag -0.5871 3.5305 2.2014 0
M  V30 65 Fe -1.2836 2.2855 4.0986 0
M  V30 66 Ag -2.0532 0.7901 5.7736 0
M  V30 67 Ag 1.7035 4.4802 -3.6227 0
M  V30 68 Fe 2.6594 5.0633 -1.5315 0
M  V30 69 Ag 3.7955 5.2923 0.5377 0
M  V30 70 Ag -4.2494 -3.7550 -2.2626 0
M  V30 71 Fe -2.1501 -3.2837 -3.2723 0
M  V30 72 Ag -0.0482 -2.8118 -4.2763 0
M  V30 73 Ba 1.5046 -1.2019 -5.3271 0
M  V30 74 Ga 1.4468 0.2635 -5.5048 0
M  V30 75 Ba 1.3821 1.7206 -5.7399 0
M  V30 76 Ba -2.0468 -4.9142 3.7437 0
M  V30 77 Ga -2.3959 -3.7199 4.5834 0
M  V30 78 Ba -2.8414 -2.6145 5.4964 0
M  V30 79 Ba -6.0623 -2.3783 -1.2758 0
M  V30 80 Ga -6.5222 -1.2650 -0.4268 0
M  V30 81 Ba -6.9536 -0.1911 0.4858 0
M  V30 82 Ba 7.9894 1.7204 -0.6406 0
M  V30 83 Ga 7.1203 2.3793 0.3791 0
M  V30 84 Ba 6.2520 3.0372 1.4000 0
M  V30 85 Ba -6.3024 -3.9151 0.5703 0
M  V30 86 Ga -6.7617 -2.8466 1.4760 0
M  V30 87 Ba -7.1798 -1.7264 2.3381 0
M  V30 88 Ba -4.5460 -5.3693 -0.2967 0
M  V30 89 Ga -3.4357 -5.7420 0.6006 0
M  V30 90 Ba -2.3372 -6.1604 1.4922 0
M  V30 91 Ba -1.0123 3.0998 -1.2204 0
M  V30 92 Ga -0.4841 3.0183 -2.5971 0
M  V30 93 Ba -0.0210 2.9203 -3.9962 0
M  V30 94 Ba 0.9299 2.5926 0.4378 0
M  V30 95 Ga 2.3642 2.8175 0.7114 0
M  V30 96 Ba 3.8119 2.9580 0.9705 0
M  V30 97 Ba -4.2531 -0.4678 5.7907 0
M  V30 98 Ga -5.3607 -0.2199 4.8449 0
M  V30 99 Ba -6.5039 0.0395 3.9457 0
M  V30 END ATOM
M  V30 BEGIN BOND
M  V30 1 1 1 2
M  V30 2 1 1 3
M  V30 3 1 1 4
M  V30 4 1 1 5
M  V30 5 1 6 7
M  V30 6 1 6 8
M  V30 7 1 6 9
M  V30 8 1 6 10
M  V30 9 1 11 12
M  V30 10 1 11 13
M  V30 11 1 11 14
M  V30 12 1 11 15
M  V30 13 1 16 17
M  V30 14 1 16 18
M  V30 15 1 16 19
M  V30 16 1 16 20
M  V30 17 1 21 22
M  V30 18 1 21 23
M  V30 19 1 21 24
M  V30 20 1 21 25
M  V30 21 1 26 27
M  V30 22 1 26 28
M  V30 23 1 26 29
M  V30 24 1 26 30
M  V30 25 1 31 32
M  V30 26 1 31 33
M  V30 27 1 31 34
M  V30 28 1 31 35
M  V30 29 1 36 37
M  V30 30 1 36 38
M  V30 31 1 36 39
M  V30 32 1 36 40
M  V30 33 1 41 42
M  V30 34 1 41 43
M  V30 35 1 41 44
M  V30 36 1 41 45
M  V30 37 1 46 47
M  V30 38 1 47 48
M  V30 39 1 49 50
M  V30 40 1 50 51
M  V30 41 1 52 53
M  V30 42 1 53 54
M  V30 43 1 55 56
M  V30 44 1 56 57
M  V30 45 1 58 59
M  V30 46 1 59 60
M  V30 47 1 61 62
M  V30 48 1 62 63
M  V30 49 1 64 65
M  V30 50 1 65 66
M  V30 51 1 67 68
M  V30 52 1 68 69
M  V30 53 1 70 71
M  V30 54 1 71 72
M  V30 55 1 73 74
M  V30 56 1 74 75
M  V30 57 1 76 77
M  V30 58 1 77 78
M  V30 59 1 79 80
M  V30 60 1 80 81
M  V30 61 1 82 83
M  V30 62 1 83 84
M  V30 63 1 85 86
M  V30 64 1 86 87
M  V30 65 1 88 89
M  V30 66 1 89 90
M  V30 67 1 91 92
M  V30 68 1 92 93
M  V30 69 1 94 95
M  V30 70 1 95 96
M  V30 71 1 97 98
M  V30 72 1 98 99
M  V30 73 1 2 49
M  V30 74 1 3 94
M  V30 75 1 4 64
M  V30 76 1 5 91
M  V30 77 1 7 46
M  V30 78 1 8 82
M  V30 79 1 9 61
M  V30 80 1 10 55
M  V30 81 1 12 85
M  V30 82 1 13 70
M  V30 83 1 14 88
M  V30 84 1 15 79
M  V30 85 1 17 90
M  V30 86 1 18 76
M  V30 87 1 19 52
M  V30 88 1 20 58
M  V30 89 1 22 48
M  V30 90 1 23 72
M  V30 91 1 24 54
M  V30 92 1 25 73
M  V30 93 1 27 78
M  V30 94 1 28 97
M  V30 95 1 29 66
M  V30 96 1 30 60
M  V30 97 1 32 51
M  V30 98 1 33 99
M  V30 99 1 34 81
M  V30 100 1 35 87
M  V30 101 1 37 75
M  V30 102 1 38 67
M  V30 103 1 39 63
M  V30 104 1 40 93
M  V30 105 1 42 84
M  V30 106 1 43 96
M  V30 107 1 44 69
M  V30 108 1 45 57
M  V30 END BOND
M  V30 END CTAB
M  END

$$$$
