
     RDKit          3D

  0  0  0  0  0  0  0  0  0  0999 V3000
M  V30 BEGIN CTAB
M  V30 COUNTS 99 108 0 0 0
M  V30 BEGIN ATOM
M  V30 1 Pd 1.3418 -0.3780 -5.3014 0
M  V30 2 Pb 0.6347 0.2174 -5.6761 0
M  V30 3 Pb 0.6454 -1.0675 -5.0988 0
M  V30 4 Pb 2.0238 0.3327 -5.4814 0
M  V30 5 Pb 2.0343 -0.9654 -4.8872 0
M  V30 6 Pd -2.3554 -6.6596 2.2206 0
M  V30 7 Pb -2.3970 -5.6594 2.2208 0
M  V30 8 Pb -3.0433 -6.6941 1.4805 0
M  V30 9 Pb -1.5070 -6.6641 2.7457 0
M  V30 10 Pb -2.3425 -7.6558 2.2510 0
M  V30 11 Pd -2.6620 4.8089 3.1792 0
M  V30 12 Pb -3.3325 4.2321 2.7342 0
M  V30 13 Pb -2.7274 4.2216 3.9871 0
M  V30 14 Pb -2.0385 5.4003 3.6945 0
M  V30 15 Pb -2.5708 5.3682 2.3227 0
M  V30 16 Pd 2.4877 4.9409 3.9570 0
M  V30 17 Pb 1.8232 5.4563 4.4912 0
M  V30 18 Pb 3.0677 4.4209 3.3224 0
M  V30 19 Pb 2.5674 4.2529 4.6769 0
M  V30 20 Pb 2.3790 5.6177 3.2407 0
M  V30 21 Pd -0.0420 0.3273 4.7556 0
M  V30 22 Pb -0.6872 -0.2027 4.2052 0
M  V30 23 Pb -0.7862 0.8895 5.1226 0
M  V30 24 Pb 0.6235 0.8422 5.2950 0
M  V30 25 Pb 0.7029 -0.2287 4.3886 0
M  V30 26 Pd 2.7028 4.6804 -3.2851 0
M  V30 27 Pb 3.2286 4.1832 -2.5883 0
M  V30 28 Pb 2.1139 5.2210 -3.8832 0
M  V30 29 Pb 2.9473 4.0236 -4.0034 0
M  V30 30 Pb 2.5028 5.3570 -2.5880 0
M  V30 31 Pd -2.5145 5.2880 -2.9044 0
M  V30 32 Pb -2.5227 4.7835 -3.7639 0
M  V30 33 Pb -1.7714 5.8298 -3.3042 0
M  V30 34 Pb -2.4607 5.7324 -1.9816 0
M  V30 35 Pb -3.2573 4.7167 -2.5846 0
M  V30 36 Pd 2.4335 -5.5142 0.2286 0
M  V30 37 Pb 2.6087 -4.7635 0.8650 0
M  V30 38 Pb 2.3007 -6.2431 -0.4523 0
M  V30 39 Pb 2.0399 -6.0107 1.0109 0
M  V30 40 Pb 2.8432 -4.9848 -0.5129 0
M  V30 41 Pd -1.4196 -7.4404 -2.8791 0
M  V30 42 Pb -2.3223 -7.3003 -2.4454 0
M  V30 43 Pb -1.4258 -6.4905 -3.1960 0
M  V30 44 Pb -0.4437 -7.5463 -3.0548 0
M  V30 45 Pb -1.4397 -8.3984 -2.6050 0
M  V30 46 Ag -2.4634 -4.9112 2.2281 0
M  V30 47 Fe -1.8026 -2.7654 3.0046 0
M  V30 48 Ag -1.1434 -0.6183 3.7787 0
M  V30 49 Ag 0.0980 0.6842 -5.9048 0
M  V30 50 Fe -1.2505 2.5275 -5.2690 0
M  V30 51 Ag -2.4582 4.3616 -4.3760 0
M  V30 52 Ag 1.2608 -0.6447 4.1111 0
M  V30 53 Fe 2.0014 -2.4254 2.7261 0
M  V30 54 Ag 2.7505 -4.2043 1.3435 0
M  V30 55 Ag 3.4399 4.0732 2.7644 0
M  V30 56 Fe 3.5984 3.8879 0.3948 0
M  V30 57 Ag 3.5676 3.8767 -1.9869 0
M  V30 58 Ag -2.3011 -8.3827 2.1138 0
M  V30 59 Fe -1.8955 -9.3933 0.0322 0
M  V30 60 Ag -1.4857 -9.0501 -2.2554 0
M  V30 61 Ag -3.8116 3.8581 2.3173 0
M  V30 62 Fe -4.1730 3.7610 -0.0027 0
M  V30 63 Ag -3.7612 4.2921 -2.2545 0
M  V30 64 Ag 2.2874 6.0740 2.6644 0
M  V30 65 Fe 2.2973 6.1203 0.3016 0
M  V30 66 Ag 2.3795 5.8460 -2.0443 0
M  V30 67 Ag 2.5244 -1.4145 -4.5441 0
M  V30 68 Fe 2.8806 -3.0073 -2.8213 0
M  V30 69 Ag 3.1454 -4.5921 -1.0747 0
M  V30 70 Ag 0.1069 -1.5649 -4.9369 0
M  V30 71 Fe -0.6283 -3.6957 -4.1850 0
M  V30 72 Ag -1.4863 -5.7863 -3.4510 0
M  V30 73 Ba 2.5967 3.7403 5.2221 0
M  V30 74 Ga 1.8770 2.4774 5.4661 0
M  V30 75 Ba 1.1419 1.2186 5.6841 0
M  V30 76 Ba -2.4964 5.8241 1.6990 0
M  V30 77 Ga -2.4716 5.8564 0.1944 0
M  V30 78 Ba -2.4185 6.0850 -1.2925 0
M  V30 79 Ba -3.4916 -6.7366 0.8648 0
M  V30 80 Ga -3.2363 -6.9606 -0.5896 0
M  V30 81 Ba -2.9579 -7.1861 -2.0395 0
M  V30 82 Ba -1.6027 5.8148 4.1468 0
M  V30 83 Ga -0.1699 5.8553 4.4940 0
M  V30 84 Ba 1.2729 5.8560 4.7991 0
M  V30 85 Ba -0.8120 -6.7333 3.0178 0
M  V30 86 Ga 0.4927 -6.5113 2.3533 0
M  V30 87 Ba 1.7869 -6.2901 1.6681 0
M  V30 88 Ba 2.5226 0.8764 -5.6226 0
M  V30 89 Ga 2.8266 2.2109 -5.0640 0
M  V30 90 Ba 3.1730 3.5509 -4.5450 0
M  V30 91 Ba 2.2766 -6.7155 -1.0438 0
M  V30 92 Ga 1.2956 -7.1882 -2.0469 0
M  V30 93 Ba 0.2970 -7.6566 -3.0345 0
M  V30 94 Ba 1.6354 5.6933 -4.2148 0
M  V30 95 Ga 0.1983 5.9462 -3.9786 0
M  V30 96 Ba -1.2380 6.1725 -3.7122 0
M  V30 97 Ba -2.7676 3.7645 4.5816 0
M  V30 98 Ga -2.0526 2.5390 4.9930 0
M  V30 99 Ba -1.3390 1.3133 5.4064 0
M  V30 END ATOM
M  V30 BEGIN BOND
M  V30 1 1 1 2
M  V30 2 1 1 3
M  V30 3 1 1 4
M  V30 4 1 1 5
M  V30 5 1 6 7
M  V30 6 1 6 8
M  V30 7 1 6 9
M  V30 8 1 6 10
M  V30 9 1 11 12
M  V30 10 1 11 13
M  V30 11 1 11 14
M  V30 12 1 11 15
M  V30 13 1 16 17
M  V30 14 1 16 18
M  V30 15 1 16 19
M  V30 16 1 16 20
M  V30 17 1 21 22
M  V30 18 1 21 23
M  V30 19 1 21 24
M  V30 20 1 21 25
M  V30 21 1 26 27
M  V30 22 1 26 28
M  V30 23 1 26 29
M  V30 24 1 26 30
M  V30 25 1 31 32
M  V30 26 1 31 33
M  V30 27 1 31 34
M  V30 28 1 31 35
M  V30 29 1 36 37
M  V30 30 1 36 38
M  V30 31 1 36 39
M  V30 32 1 36 40
M  V30 33 1 41 42
M  V30 34 1 41 43
M  V30 35 1 41 44
M  V30 36 1 41 45
M  V30 37 1 46 47
M  V30 38 1 47 48
M  V30 39 1 49 50
M  V30 40 1 50 51
M  V30 41 1 52 53
M  V30 42 1 53 54
M  V30 43 1 55 56
M  V30 44 1 56 57
M  V30 45 1 58 59
M  V30 46 1 59 60
M  V30 47 1 61 62
M  V30 48 1 62 63
M  V30 49 1 64 65
M  V30 50 1 65 66
M  V30 51 1 67 68
M  V30 52 1 68 69
M  V30 53 1 70 71
M  V30 54 1 71 72
M  V30 55 1 73 74
M  V30 56 1 74 75
M  V30 57 1 76 77
M  V30 58 1 77 78
M  V30 59 1 79 80
M  V30 60 1 80 81
M  V30 61 1 82 83
M  V30 62 1 83 84
M  V30 63 1 85 86
M  V30 64 1 86 87
M  V30 65 1 88 89
M  V30 66 1 89 90
M  V30 67 1 91 92
M  V30 68 1 92 93
M  V30 69 1 94 95
M  V30 70 1 95 96
M  V30 71 1 97 98
M  V30 72 1 98 99
M  V30 73 1 2 49
M  V30 74 1 3 70
M  V30 75 1 4 88
M  V30 76 1 5 67
M  V30 77 1 7 46
M  V30 78 1 8 79
M  V30 79 1 9 85
M  V30 80 1 10 58
M  V30 81 1 12 61
M  V30 82 1 13 97
M  V30 83 1 14 82
M  V30 84 1 15 76
M  V30 85 1 17 84
M  V30 86 1 18 55
M  V30 87 1 19 73
M  V30 88 1 20 64
M  V30 89 1 22 48
M  V30 90 1 23 99
M  V30 91 1 24 75
M  V30 92 1 25 52
M  V30 93 1 27 57
M  V30 94 1 28 94
M  V30 95 1 29 90
M  V30 96 1 30 66
M  V30 97 1 32 51
M  V30 98 1 33 96
M  V30 99 1 34 78
M  V30 100 1 35 63
M  V30 101 1 37 54
M  V30 102 1 38 91
M  V30 103 1 39 87
M  V30 104 1 40 69
M  V30 105 1 42 81
M  V30 106 1 43 72
M  V30 107 1 44 93
M  V30 108 1 45 60
M  V30 END BOND
M  V30 END CTAB
M  END

$$$$
