
     RDKit          3D

  0  0  0  0  0  0  0  0  0  0999 V3000
M  V30 BEGIN CTAB
M  V30 COUNTS 99 108 0 0 0
M  V30 BEGIN ATOM
M  V30 1 Pd 1.6135 0.0114 1.1299 0
M  V30 2 Pb 2.2372 -0.7169 1.4161 0
M  V30 3 Pb 1.5600 -0.4254 0.2298 0
M  V30 4 Pb 1.6378 0.4223 2.0396 0
M  V30 5 Pb 0.9582 0.7286 0.8832 0
M  V30 6 Pd 4.9415 2.0699 -6.5558 0
M  V30 7 Pb 3.9980 2.2534 -6.8338 0
M  V30 8 Pb 4.8459 1.1064 -6.8077 0
M  V30 9 Pb 5.0045 2.9996 -6.1948 0
M  V30 10 Pb 5.8439 1.8528 -6.1857 0
M  V30 11 Pd -3.6929 -3.8890 -0.2384 0
M  V30 12 Pb -2.7595 -4.2837 -0.1259 0
M  V30 13 Pb -3.3915 -3.3526 -1.0262 0
M  V30 14 Pb -4.5955 -3.4616 -0.3015 0
M  V30 15 Pb -4.0119 -4.4460 0.5195 0
M  V30 16 Pd -5.8785 -0.0260 2.6611 0
M  V30 17 Pb -6.2166 -0.5536 1.8795 0
M  V30 18 Pb -6.2191 -0.7186 3.2899 0
M  V30 19 Pb -5.5551 0.6916 2.0412 0
M  V30 20 Pb -5.5167 0.4847 3.4624 0
M  V30 21 Pd -2.0608 2.9211 -3.6427 0
M  V30 22 Pb -1.4863 2.9055 -4.4639 0
M  V30 23 Pb -2.1820 1.9316 -3.7103 0
M  V30 24 Pb -2.6311 2.9468 -2.8192 0
M  V30 25 Pb -1.9045 3.9037 -3.5456 0
M  V30 26 Pd -2.3415 -0.1894 7.3295 0
M  V30 27 Pb -3.0842 -0.7991 7.5885 0
M  V30 28 Pb -1.6583 -0.8349 7.6669 0
M  V30 29 Pb -1.5871 0.3689 6.9913 0
M  V30 30 Pb -3.0145 0.3999 6.8516 0
M  V30 31 Pd 0.8842 -4.8646 3.3922 0
M  V30 32 Pb 1.6700 -4.3368 3.0643 0
M  V30 33 Pb 1.1145 -4.6534 4.3410 0
M  V30 34 Pb 0.1049 -5.3785 3.7312 0
M  V30 35 Pb 0.5424 -4.9954 2.4428 0
M  V30 36 Pd 1.6617 5.0153 -1.0137 0
M  V30 37 Pb 0.9479 5.5330 -1.4832 0
M  V30 38 Pb 2.3627 4.4443 -0.5898 0
M  V30 39 Pb 2.3534 5.4252 -1.6062 0
M  V30 40 Pb 0.9620 4.4990 -0.5220 0
M  V30 41 Pd 5.0148 -0.9830 -3.0530 0
M  V30 42 Pb 4.9085 -1.3768 -3.9660 0
M  V30 43 Pb 4.0902 -1.2721 -2.8010 0
M  V30 44 Pb 5.0800 -0.4795 -2.1944 0
M  V30 45 Pb 5.8982 -0.6181 -3.3458 0
M  V30 46 Ag 3.2736 2.3853 -6.9804 0
M  V30 47 Fe 1.0941 2.6471 -6.0692 0
M  V30 48 Ag -1.0520 2.8955 -5.0780 0
M  V30 49 Ag -5.3314 1.2469 1.5863 0
M  V30 50 Fe -4.1771 2.0739 -0.3201 0
M  V30 51 Ag -3.0550 2.9995 -2.2003 0
M  V30 52 Ag -6.3777 -1.1732 3.8549 0
M  V30 53 Fe -5.3288 -1.5382 5.9354 0
M  V30 54 Ag -3.6863 -1.2312 7.5991 0
M  V30 55 Ag -4.1164 -4.8689 1.1170 0
M  V30 56 Fe -2.6300 -5.5718 2.8010 0
M  V30 57 Ag -0.5461 -5.6921 3.8882 0
M  V30 58 Ag 5.0003 3.6629 -5.8468 0
M  V30 59 Fe 4.0198 4.8047 -4.0115 0
M  V30 60 Ag 2.8591 5.6368 -2.1159 0
M  V30 61 Ag 1.5901 0.7351 2.7179 0
M  V30 62 Fe 0.3655 0.8115 4.7485 0
M  V30 63 Ag -0.9997 0.7171 6.6866 0
M  V30 64 Ag 2.8710 3.9649 -0.3222 0
M  V30 65 Fe 4.0520 1.9683 -0.8173 0
M  V30 66 Ag 5.0705 -0.0253 -1.6012 0
M  V30 67 Ag -1.1146 -1.3346 7.7883 0
M  V30 68 Fe 0.1508 -2.9475 6.5931 0
M  V30 69 Ag 1.1702 -4.4413 5.0568 0
M  V30 70 Ag -3.1913 -2.9581 -1.6314 0
M  V30 71 Fe -2.7203 -0.8847 -2.6881 0
M  V30 72 Ag -2.2482 1.1863 -3.7489 0
M  V30 73 Ba 2.6903 -1.2777 1.6252 0
M  V30 74 Ga 2.4766 -2.6087 2.2282 0
M  V30 75 Ba 2.2645 -3.9400 2.8310 0
M  V30 76 Ba -1.7603 4.6311 -3.4362 0
M  V30 77 Ga -0.7003 5.3021 -2.6628 0
M  V30 78 Ba 0.3988 5.8718 -1.8633 0
M  V30 79 Ba 6.4738 1.6317 -5.8460 0
M  V30 80 Ga 6.5938 0.6749 -4.7318 0
M  V30 81 Ba 6.5142 -0.2975 -3.6275 0
M  V30 82 Ba 4.7822 0.3646 -6.9009 0
M  V30 83 Ga 4.7960 -0.6779 -5.8570 0
M  V30 84 Ba 4.8317 -1.5740 -4.6855 0
M  V30 85 Ba -2.0551 -4.5878 -0.0720 0
M  V30 86 Ga -0.9243 -4.8073 0.8848 0
M  V30 87 Ba 0.2790 -5.0943 1.7287 0
M  V30 88 Ba -5.2753 0.8895 4.0667 0
M  V30 89 Ga -4.3741 0.8041 5.2553 0
M  V30 90 Ba -3.5115 0.8419 6.4748 0
M  V30 91 Ba -5.2631 -3.1189 -0.3255 0
M  V30 92 Ga -5.8747 -2.0399 0.4760 0
M  V30 93 Ba -6.4596 -0.9592 1.2952 0
M  V30 94 Ba 0.4531 1.2766 0.7781 0
M  V30 95 Ga 0.4508 2.6678 0.2831 0
M  V30 96 Ba 0.4404 4.0588 -0.2126 0
M  V30 97 Ba 1.5247 -0.7994 -0.4217 0
M  V30 98 Ga 2.4588 -1.1170 -1.5213 0
M  V30 99 Ba 3.3793 -1.4441 -2.6296 0
M  V30 END ATOM
M  V30 BEGIN BOND
M  V30 1 1 1 2
M  V30 2 1 1 3
M  V30 3 1 1 4
M  V30 4 1 1 5
M  V30 5 1 6 7
M  V30 6 1 6 8
M  V30 7 1 6 9
M  V30 8 1 6 10
M  V30 9 1 11 12
M  V30 10 1 11 13
M  V30 11 1 11 14
M  V30 12 1 11 15
M  V30 13 1 16 17
M  V30 14 1 16 18
M  V30 15 1 16 19
M  V30 16 1 16 20
M  V30 17 1 21 22
M  V30 18 1 21 23
M  V30 19 1 21 24
M  V30 20 1 21 25
M  V30 21 1 26 27
M  V30 22 1 26 28
M  V30 23 1 26 29
M  V30 24 1 26 30
M  V30 25 1 31 32
M  V30 26 1 31 33
M  V30 27 1 31 34
M  V30 28 1 31 35
M  V30 29 1 36 37
M  V30 30 1 36 38
M  V30 31 1 36 39
M  V30 32 1 36 40
M  V30 33 1 41 42
M  V30 34 1 41 43
M  V30 35 1 41 44
M  V30 36 1 41 45
M  V30 37 1 46 47
M  V30 38 1 47 48
M  V30 39 1 49 50
M  V30 40 1 50 51
M  V30 41 1 52 53
M  V30 42 1 53 54
M  V30 43 1 55 56
M  V30 44 1 56 57
M  V30 45 1 58 59
M  V30 46 1 59 60
M  V30 47 1 61 62
M  V30 48 1 62 63
M  V30 49 1 64 65
M  V30 50 1 65 66
M  V30 51 1 67 68
M  V30 52 1 68 69
M  V30 53 1 70 71
M  V30 54 1 71 72
M  V30 55 1 73 74
M  V30 56 1 74 75
M  V30 57 1 76 77
M  V30 58 1 77 78
M  V30 59 1 79 80
M  V30 60 1 80 81
M  V30 61 1 82 83
M  V30 62 1 83 84
M  V30 63 1 85 86
M  V30 64 1 86 87
M  V30 65 1 88 89
M  V30 66 1 89 90
M  V30 67 1 91 92
M  V30 68 1 92 93
M  V30 69 1 94 95
M  V30 70 1 95 96
M  V30 71 1 97 98
M  V30 72 1 98 99
M  V30 73 1 2 73
M  V30 74 1 3 97
M  V30 75 1 4 61
M  V30 76 1 5 94
M  V30 77 1 7 46
M  V30 78 1 8 82
M  V30 79 1 9 58
M  V30 80 1 10 79
M  V30 81 1 12 85
M  V30 82 1 13 70
M  V30 83 1 14 91
M  V30 84 1 15 55
M  V30 85 1 17 93
M  V30 86 1 18 52
M  V30 87 1 19 49
M  V30 88 1 20 88
M  V30 89 1 22 48
M  V30 90 1 23 72
M  V30 91 1 24 51
M  V30 92 1 25 76
M  V30 93 1 27 54
M  V30 94 1 28 67
M  V30 95 1 29 63
M  V30 96 1 30 90
M  V30 97 1 32 75
M  V30 98 1 33 69
M  V30 99 1 34 57
M  V30 100 1 35 87
M  V30 101 1 37 78
M  V30 102 1 38 64
M  V30 103 1 39 60
M  V30 104 1 40 96
M  V30 105 1 42 84
M  V30 106 1 43 99
M  V30 107 1 44 66
M  V30 108 1 45 81
M  V30 END BOND
M  V30 END CTAB
M  END

$$$$
