
     RDKit          3D

  0  0  0  0  0  0  0  0  0  0999 V3000
M  V30 BEGIN CTAB
M  V30 COUNTS 99 108 0 0 0
M  V30 BEGIN ATOM
M  V30 1 Pd 3.7443 1.3037 3.0676 0
M  V30 2 Pb 3.3262 2.2047 3.1706 0
M  V30 3 Pb 3.3240 1.0644 3.9427 0
M  V30 4 Pb 4.2338 1.5234 2.2164 0
M  V30 5 Pb 4.0550 0.3580 2.9819 0
M  V30 6 Pd -4.5207 -5.2606 3.4982 0
M  V30 7 Pb -4.7921 -5.0888 2.5517 0
M  V30 8 Pb -4.2245 -5.4009 4.4511 0
M  V30 9 Pb -3.9413 -6.0313 3.2316 0
M  V30 10 Pb -5.0221 -4.4535 3.8004 0
M  V30 11 Pd -3.9024 2.6864 -4.7844 0
M  V30 12 Pb -4.1927 2.7905 -3.8306 0
M  V30 13 Pb -4.2205 1.7382 -4.8413 0
M  V30 14 Pb -3.5157 2.6063 -5.7016 0
M  V30 15 Pb -3.5773 3.6287 -4.7256 0
M  V30 16 Pd 2.8460 1.9905 -6.9612 0
M  V30 17 Pb 2.0114 2.0747 -7.5022 0
M  V30 18 Pb 3.6372 1.9397 -6.3222 0
M  V30 19 Pb 2.5445 1.0713 -6.7121 0
M  V30 20 Pb 3.1116 2.9166 -7.2046 0
M  V30 21 Pd -2.4188 -2.6917 -3.4557 0
M  V30 22 Pb -3.1555 -3.0141 -2.8619 0
M  V30 23 Pb -3.0819 -2.1176 -3.9423 0
M  V30 24 Pb -1.6601 -2.4222 -4.0503 0
M  V30 25 Pb -1.7760 -3.2887 -2.9756 0
M  V30 26 Pd 5.2373 4.2475 -2.0766 0
M  V30 27 Pb 5.3537 3.5423 -2.8012 0
M  V30 28 Pb 5.0221 4.9678 -1.4206 0
M  V30 29 Pb 5.3168 3.5410 -1.3663 0
M  V30 30 Pb 5.2047 4.9445 -2.7839 0
M  V30 31 Pd -0.9797 6.6231 0.4430 0
M  V30 32 Pb -0.6487 6.2812 1.3182 0
M  V30 33 Pb -0.0987 7.0878 0.3990 0
M  V30 34 Pb -1.2362 6.8980 -0.4806 0
M  V30 35 Pb -1.8021 6.0489 0.4417 0
M  V30 36 Pd 0.8749 -5.7338 2.9890 0
M  V30 37 Pb 0.7777 -5.6546 1.9972 0
M  V30 38 Pb 0.9983 -5.8068 3.9817 0
M  V30 39 Pb 0.0710 -6.3353 2.9958 0
M  V30 40 Pb 1.6882 -5.1508 2.9511 0
M  V30 41 Pd -0.9431 -3.1127 7.3309 0
M  V30 42 Pb -1.6303 -3.8444 7.2501 0
M  V30 43 Pb -0.2695 -2.3759 7.3483 0
M  V30 44 Pb -0.2284 -3.8053 7.2326 0
M  V30 45 Pb -1.6886 -2.4511 7.3568 0
M  V30 46 Ag -4.9870 -4.9284 1.8461 0
M  V30 47 Fe -4.3634 -4.1092 -0.2936 0
M  V30 48 Ag -3.6957 -3.2834 -2.4174 0
M  V30 49 Ag 2.9151 2.8136 3.3193 0
M  V30 50 Fe 1.3182 4.4440 2.6675 0
M  V30 51 Ag -0.2714 6.0374 1.9151 0
M  V30 52 Ag -1.2882 -3.7451 -2.6348 0
M  V30 53 Fe -0.3017 -4.6591 -0.6775 0
M  V30 54 Ag 0.7133 -5.6002 1.2522 0
M  V30 55 Ag 2.2701 0.3931 -6.5505 0
M  V30 56 Fe 0.5970 -0.9209 -5.4939 0
M  V30 57 Ag -1.0465 -2.2921 -4.4638 0
M  V30 58 Ag -3.3335 4.3274 -4.6147 0
M  V30 59 Fe -2.3869 5.7907 -3.0059 0
M  V30 60 Ag -1.4471 6.9936 -1.1907 0
M  V30 61 Ag -5.2365 -3.8273 4.1383 0
M  V30 62 Fe -4.1068 -2.5624 5.7799 0
M  V30 63 Ag -2.3207 -2.0765 7.2444 0
M  V30 64 Ag -4.3208 2.9513 -3.1062 0
M  V30 65 Fe -3.4634 4.2250 -1.2887 0
M  V30 66 Ag -2.3895 5.5886 0.3385 0
M  V30 67 Ag 3.3444 3.6178 -7.2312 0
M  V30 68 Fe 4.3173 4.9461 -5.5490 0
M  V30 69 Ag 5.1440 5.3707 -3.3861 0
M  V30 70 Ag -3.1445 2.5540 -6.3493 0
M  V30 71 Fe -0.9591 2.3432 -7.2483 0
M  V30 72 Ag 1.3347 2.1307 -7.8158 0
M  V30 73 Ag 4.2157 -0.3721 2.9309 0
M  V30 74 Fe 3.3065 -2.5666 2.9167 0
M  V30 75 Ag 2.3021 -4.7192 2.9140 0
M  V30 76 Ag 3.0383 0.8856 4.6126 0
M  V30 77 Fe 1.6358 -0.4551 5.9807 0
M  V30 78 Ag 0.2228 -1.8127 7.3210 0
M  V30 79 Ag 4.7701 5.5476 -1.0210 0
M  V30 80 Fe 2.7762 6.5654 -0.2368 0
M  V30 81 Ag 0.6164 7.3048 0.4073 0
M  V30 82 Ba 4.2340 1.8870 -5.8414 0
M  V30 83 Ga 4.7876 2.4961 -4.5909 0
M  V30 84 Ba 5.4478 3.0155 -3.3516 0
M  V30 85 Ba -4.0114 -5.5142 5.1692 0
M  V30 86 Ga -3.0666 -4.9292 6.1536 0
M  V30 87 Ba -2.1453 -4.3958 7.1883 0
M  V30 88 Ba -3.4680 -6.5955 3.0850 0
M  V30 89 Ga -1.9943 -6.6932 3.0144 0
M  V30 90 Ba -0.5212 -6.7995 2.9438 0
M  V30 91 Ba 4.6777 1.5857 1.6077 0
M  V30 92 Ga 4.9719 2.3605 0.3803 0
M  V30 93 Ba 5.4426 2.9763 -0.8819 0
M  V30 94 Ba 1.1385 -5.8404 4.7208 0
M  V30 95 Ga 0.7052 -5.1013 5.9246 0
M  V30 96 Ba 0.2664 -4.3589 7.1243 0
M  V30 97 Ba -4.4610 1.0311 -4.9267 0
M  V30 98 Ga -4.0042 -0.3328 -4.5861 0
M  V30 99 Ba -3.6267 -1.7309 -4.2899 0
M  V30 END ATOM
M  V30 BEGIN BOND
M  V30 1 1 1 2
M  V30 2 1 1 3
M  V30 3 1 1 4
M  V30 4 1 1 5
M  V30 5 1 6 7
M  V30 6 1 6 8
M  V30 7 1 6 9
M  V30 8 1 6 10
M  V30 9 1 11 12
M  V30 10 1 11 13
M  V30 11 1 11 14
M  V30 12 1 11 15
M  V30 13 1 16 17
M  V30 14 1 16 18
M  V30 15 1 16 19
M  V30 16 1 16 20
M  V30 17 1 21 22
M  V30 18 1 21 23
M  V30 19 1 21 24
M  V30 20 1 21 25
M  V30 21 1 26 27
M  V30 22 1 26 28
M  V30 23 1 26 29
M  V30 24 1 26 30
M  V30 25 1 31 32
M  V30 26 1 31 33
M  V30 27 1 31 34
M  V30 28 1 31 35
M  V30 29 1 36 37
M  V30 30 1 36 38
M  V30 31 1 36 39
M  V30 32 1 36 40
M  V30 33 1 41 42
M  V30 34 1 41 43
M  V30 35 1 41 44
M  V30 36 1 41 45
M  V30 37 1 46 47
M  V30 38 1 47 48
M  V30 39 1 49 50
M  V30 40 1 50 51
M  V30 41 1 52 53
M  V30 42 1 53 54
M  V30 43 1 55 56
M  V30 44 1 56 57
M  V30 45 1 58 59
M  V30 46 1 59 60
M  V30 47 1 61 62
M  V30 48 1 62 63
M  V30 49 1 64 65
M  V30 50 1 65 66
M  V30 51 1 67 68
M  V30 52 1 68 69
M  V30 53 1 70 71
M  V30 54 1 71 72
M  V30 55 1 73 74
M  V30 56 1 74 75
M  V30 57 1 76 77
M  V30 58 1 77 78
M  V30 59 1 79 80
M  V30 60 1 80 81
M  V30 61 1 82 83
M  V30 62 1 83 84
M  V30 63 1 85 86
M  V30 64 1 86 87
M  V30 65 1 88 89
M  V30 66 1 89 90
M  V30 67 1 91 92
M  V30 68 1 92 93
M  V30 69 1 94 95
M  V30 70 1 95 96
M  V30 71 1 97 98
M  V30 72 1 98 99
M  V30 73 1 2 49
M  V30 74 1 3 76
M  V30 75 1 4 91
M  V30 76 1 5 73
M  V30 77 1 7 46
M  V30 78 1 8 85
M  V30 79 1 9 88
M  V30 80 1 10 61
M  V30 81 1 12 64
M  V30 82 1 13 97
M  V30 83 1 14 70
M  V30 84 1 15 58
M  V30 85 1 17 72
M  V30 86 1 18 82
M  V30 87 1 19 55
M  V30 88 1 20 67
M  V30 89 1 22 48
M  V30 90 1 23 99
M  V30 91 1 24 57
M  V30 92 1 25 52
M  V30 93 1 27 84
M  V30 94 1 28 79
M  V30 95 1 29 93
M  V30 96 1 30 69
M  V30 97 1 32 51
M  V30 98 1 33 81
M  V30 99 1 34 60
M  V30 100 1 35 66
M  V30 101 1 37 54
M  V30 102 1 38 94
M  V30 103 1 39 90
M  V30 104 1 40 75
M  V30 105 1 42 87
M  V30 106 1 43 78
M  V30 107 1 44 96
M  V30 108 1 45 63
M  V30 END BOND
M  V30 END CTAB
M  END

$$$$
