
     RDKit          3D

  0  0  0  0  0  0  0  0  0  0999 V3000
M  V30 BEGIN CTAB
M  V30 COUNTS 99 108 0 0 0
M  V30 BEGIN ATOM
M  V30 1 Pd -0.4595 2.9750 3.1914 0
M  V30 2 Pb -0.9620 3.8123 2.9634 0
M  V30 3 Pb -1.1145 2.4290 2.6660 0
M  V30 4 Pb 0.2549 3.4929 3.6610 0
M  V30 5 Pb 0.0512 2.1451 3.4070 0
M  V30 6 Pd -6.5861 -5.0553 1.0074 0
M  V30 7 Pb -6.0956 -5.3976 0.2044 0
M  V30 8 Pb -6.7810 -4.1837 0.5589 0
M  V30 9 Pb -6.2671 -5.8270 1.5487 0
M  V30 10 Pb -6.9980 -4.6916 1.8400 0
M  V30 11 Pd 1.0673 1.2925 -5.9462 0
M  V30 12 Pb 0.2268 1.5759 -5.4798 0
M  V30 13 Pb 0.7151 0.3666 -6.0744 0
M  V30 14 Pb 1.9411 1.0128 -6.3459 0
M  V30 15 Pb 1.4008 2.2213 -5.7982 0
M  V30 16 Pd 5.7185 0.0447 -3.6499 0
M  V30 17 Pb 5.4020 0.0571 -4.6007 0
M  V30 18 Pb 6.0277 0.0705 -2.6980 0
M  V30 19 Pb 5.4472 -0.9155 -3.5594 0
M  V30 20 Pb 5.9922 1.0059 -3.7015 0
M  V30 21 Pd 0.2530 -5.4372 -2.6250 0
M  V30 22 Pb -0.7141 -5.6891 -2.5424 0
M  V30 23 Pb 0.0560 -4.9734 -3.4865 0
M  V30 24 Pb 1.2153 -5.1776 -2.7249 0
M  V30 25 Pb 0.4595 -5.8503 -1.7379 0
M  V30 26 Pd 6.0744 5.2870 1.2563 0
M  V30 27 Pb 6.4006 4.3435 1.3129 0
M  V30 28 Pb 5.6288 6.1725 1.1453 0
M  V30 29 Pb 5.6490 5.2399 2.1585 0
M  V30 30 Pb 6.3774 5.2804 0.3036 0
M  V30 31 Pd -0.4902 6.3689 -1.0028 0
M  V30 32 Pb -1.0240 6.3374 -0.1562 0
M  V30 33 Pb 0.1567 7.0121 -0.5971 0
M  V30 34 Pb 0.0761 6.3431 -1.8246 0
M  V30 35 Pb -1.0646 5.6743 -1.4386 0
M  V30 36 Pd -0.8317 -4.4122 4.6930 0
M  V30 37 Pb -0.2995 -5.0209 4.1064 0
M  V30 38 Pb -1.4011 -3.7519 5.1894 0
M  V30 39 Pb -1.5369 -5.1176 4.7240 0
M  V30 40 Pb -0.1456 -3.6946 4.6087 0
M  V30 41 Pd -4.7806 -1.0639 3.1201 0
M  V30 42 Pb -5.3317 -1.0512 2.2807 0
M  V30 43 Pb -4.1030 -0.4882 2.6565 0
M  V30 44 Pb -4.2278 -1.1564 3.9536 0
M  V30 45 Pb -5.4938 -1.6203 3.5431 0
M  V30 46 Ag -5.6880 -5.6525 -0.3732 0
M  V30 47 Fe -3.5695 -5.7655 -1.4462 0
M  V30 48 Ag -1.4441 -5.8696 -2.5066 0
M  V30 49 Ag 0.6263 -6.1151 -1.0563 0
M  V30 50 Fe 0.3877 -5.8586 1.2922 0
M  V30 51 Ag 0.0453 -5.4609 3.6079 0
M  V30 52 Ag 5.2489 -1.6359 -3.4753 0
M  V30 53 Fe 3.5861 -3.3022 -3.1457 0
M  V30 54 Ag 1.9348 -4.9799 -2.8163 0
M  V30 55 Ag 6.2621 0.1756 -1.9921 0
M  V30 56 Fe 6.4869 1.7989 -0.2717 0
M  V30 57 Ag 6.5827 3.6183 1.2531 0
M  V30 58 Ag 1.5802 2.9281 -5.6331 0
M  V30 59 Fe 1.1294 4.6813 -4.0999 0
M  V30 60 Ag 0.4984 6.2489 -2.4350 0
M  V30 61 Ag -0.3558 1.8388 -5.0831 0
M  V30 62 Fe -1.0104 3.4430 -3.4552 0
M  V30 63 Ag -1.4064 5.1294 -1.8270 0
M  V30 64 Ag 6.2084 1.7230 -3.6503 0
M  V30 65 Fe 6.4334 3.5445 -2.1422 0
M  V30 66 Ag 6.5402 5.1781 -0.4212 0
M  V30 67 Ag -5.9350 -6.2811 2.0366 0
M  V30 68 Fe -4.0313 -6.1755 3.4431 0
M  V30 69 Ag -2.0658 -5.6414 4.6544 0
M  V30 70 Ag 0.8535 3.8259 3.9653 0
M  V30 71 Fe 3.0636 4.5662 3.5155 0
M  V30 72 Ag 5.2239 5.2130 2.7740 0
M  V30 73 Ag 0.4380 1.5261 3.5706 0
M  V30 74 Fe 0.4479 -0.7951 4.0568 0
M  V30 75 Ag 0.3183 -3.1153 4.5300 0
M  V30 76 Ag 5.1828 6.7667 1.0654 0
M  V30 77 Fe 2.9673 7.2927 0.4018 0
M  V30 78 Ag 0.7154 7.4320 -0.3298 0
M  V30 79 Ag 0.4590 -0.3327 -6.1528 0
M  V30 80 Fe 0.1629 -2.4810 -5.1894 0
M  V30 81 Ag -0.0714 -4.5817 -4.1108 0
M  V30 82 Ba -1.3464 4.4349 2.7868 0
M  V30 83 Ga -1.3766 5.3670 1.6401 0
M  V30 84 Ba -1.4031 6.2964 0.4913 0
M  V30 85 Ba -7.2333 -4.3910 2.4825 0
M  V30 86 Ga -6.6941 -3.2251 3.2001 0
M  V30 87 Ba -6.0534 -2.0449 3.8017 0
M  V30 88 Ba -6.8641 -3.4789 0.3160 0
M  V30 89 Ga -6.3326 -2.2462 0.9356 0
M  V30 90 Ba -5.7464 -1.0929 1.6521 0
M  V30 91 Ba 2.6064 0.7906 -6.6137 0
M  V30 92 Ga 3.8887 0.4328 -5.9735 0
M  V30 93 Ba 5.1618 0.0791 -5.3131 0
M  V30 94 Ba -1.7999 -3.2045 5.5201 0
M  V30 95 Ga -2.8259 -2.2418 5.0574 0
M  V30 96 Ba -3.8516 -1.2778 4.5966 0
M  V30 97 Ba -1.5554 2.0128 2.2219 0
M  V30 98 Ga -2.6059 0.9769 2.3059 0
M  V30 99 Ba -3.6568 -0.0589 2.2282 0
M  V30 END ATOM
M  V30 BEGIN BOND
M  V30 1 1 1 2
M  V30 2 1 1 3
M  V30 3 1 1 4
M  V30 4 1 1 5
M  V30 5 1 6 7
M  V30 6 1 6 8
M  V30 7 1 6 9
M  V30 8 1 6 10
M  V30 9 1 11 12
M  V30 10 1 11 13
M  V30 11 1 11 14
M  V30 12 1 11 15
M  V30 13 1 16 17
M  V30 14 1 16 18
M  V30 15 1 16 19
M  V30 16 1 16 20
M  V30 17 1 21 22
M  V30 18 1 21 23
M  V30 19 1 21 24
M  V30 20 1 21 25
M  V30 21 1 26 27
M  V30 22 1 26 28
M  V30 23 1 26 29
M  V30 24 1 26 30
M  V30 25 1 31 32
M  V30 26 1 31 33
M  V30 27 1 31 34
M  V30 28 1 31 35
M  V30 29 1 36 37
M  V30 30 1 36 38
M  V30 31 1 36 39
M  V30 32 1 36 40
M  V30 33 1 41 42
M  V30 34 1 41 43
M  V30 35 1 41 44
M  V30 36 1 41 45
M  V30 37 1 46 47
M  V30 38 1 47 48
M  V30 39 1 49 50
M  V30 40 1 50 51
M  V30 41 1 52 53
M  V30 42 1 53 54
M  V30 43 1 55 56
M  V30 44 1 56 57
M  V30 45 1 58 59
M  V30 46 1 59 60
M  V30 47 1 61 62
M  V30 48 1 62 63
M  V30 49 1 64 65
M  V30 50 1 65 66
M  V30 51 1 67 68
M  V30 52 1 68 69
M  V30 53 1 70 71
M  V30 54 1 71 72
M  V30 55 1 73 74
M  V30 56 1 74 75
M  V30 57 1 76 77
M  V30 58 1 77 78
M  V30 59 1 79 80
M  V30 60 1 80 81
M  V30 61 1 82 83
M  V30 62 1 83 84
M  V30 63 1 85 86
M  V30 64 1 86 87
M  V30 65 1 88 89
M  V30 66 1 89 90
M  V30 67 1 91 92
M  V30 68 1 92 93
M  V30 69 1 94 95
M  V30 70 1 95 96
M  V30 71 1 97 98
M  V30 72 1 98 99
M  V30 73 1 2 82
M  V30 74 1 3 97
M  V30 75 1 4 70
M  V30 76 1 5 73
M  V30 77 1 7 46
M  V30 78 1 8 88
M  V30 79 1 9 67
M  V30 80 1 10 85
M  V30 81 1 12 61
M  V30 82 1 13 79
M  V30 83 1 14 91
M  V30 84 1 15 58
M  V30 85 1 17 93
M  V30 86 1 18 55
M  V30 87 1 19 52
M  V30 88 1 20 64
M  V30 89 1 22 48
M  V30 90 1 23 81
M  V30 91 1 24 54
M  V30 92 1 25 49
M  V30 93 1 27 57
M  V30 94 1 28 76
M  V30 95 1 29 72
M  V30 96 1 30 66
M  V30 97 1 32 84
M  V30 98 1 33 78
M  V30 99 1 34 60
M  V30 100 1 35 63
M  V30 101 1 37 51
M  V30 102 1 38 94
M  V30 103 1 39 69
M  V30 104 1 40 75
M  V30 105 1 42 90
M  V30 106 1 43 99
M  V30 107 1 44 96
M  V30 108 1 45 87
M  V30 END BOND
M  V30 END CTAB
M  END

$$$$
