
     RDKit          3D

  0  0  0  0  0  0  0  0  0  0999 V3000
M  V30 BEGIN CTAB
M  V30 COUNTS 99 108 0 0 0
M  V30 BEGIN ATOM
M  V30 1 Pd -0.3370 4.3551 0.9197 0
M  V30 2 Pb -0.7696 5.2289 0.6884 0
M  V30 3 Pb 0.0401 3.4618 1.1522 0
M  V30 4 Pb -0.7032 4.3915 1.8477 0
M  V30 5 Pb 0.0372 4.2352 -0.0003 0
M  V30 6 Pd 7.3893 -3.5072 0.2920 0
M  V30 7 Pb 6.8418 -4.1863 -0.1973 0
M  V30 8 Pb 7.9138 -2.8272 0.7944 0
M  V30 9 Pb 7.7575 -3.1106 -0.5476 0
M  V30 10 Pb 6.9037 -3.7020 1.1441 0
M  V30 11 Pd -4.6613 -1.0943 -3.6276 0
M  V30 12 Pb -4.3647 -0.1832 -3.9181 0
M  V30 13 Pb -3.8308 -1.4902 -4.0116 0
M  V30 14 Pb -4.9503 -1.9897 -3.2856 0
M  V30 15 Pb -5.4624 -0.6528 -3.2305 0
M  V30 16 Pd -4.2340 -3.6111 1.1815 0
M  V30 17 Pb -4.6236 -3.8260 0.2832 0
M  V30 18 Pb -3.8544 -3.3930 2.0817 0
M  V30 19 Pb -3.3820 -4.0742 0.9227 0
M  V30 20 Pb -5.0917 -3.1754 1.4646 0
M  V30 21 Pd 2.5219 -4.0901 -2.6852 0
M  V30 22 Pb 3.3007 -4.5559 -2.2598 0
M  V30 23 Pb 1.7475 -3.7126 -3.1891 0
M  V30 24 Pb 1.8832 -4.5333 -2.0531 0
M  V30 25 Pb 3.1351 -3.5964 -3.3016 0
M  V30 26 Pd -5.2154 0.4093 4.4077 0
M  V30 27 Pb -4.6153 -0.3805 4.5381 0
M  V30 28 Pb -5.7693 1.2244 4.2396 0
M  V30 29 Pb -4.5238 1.0399 4.7531 0
M  V30 30 Pb -5.8772 -0.1926 3.9599 0
M  V30 31 Pd -5.2126 5.3782 -0.6961 0
M  V30 32 Pb -4.4772 6.0201 -0.4729 0
M  V30 33 Pb -5.6293 5.4506 0.2074 0
M  V30 34 Pb -5.8935 4.6793 -0.9061 0
M  V30 35 Pb -4.7845 5.1597 -1.5718 0
M  V30 36 Pd 5.3145 0.6285 -2.4107 0
M  V30 37 Pb 5.0898 -0.0714 -3.0913 0
M  V30 38 Pb 5.5199 1.3608 -1.7512 0
M  V30 39 Pb 6.1934 0.1459 -2.3128 0
M  V30 40 Pb 4.4576 1.1234 -2.5708 0
M  V30 41 Pd 4.3925 1.6393 2.7440 0
M  V30 42 Pb 5.3649 1.6196 2.9494 0
M  V30 43 Pb 3.4305 1.5708 2.4855 0
M  V30 44 Pb 4.5970 2.3142 2.0358 0
M  V30 45 Pb 4.2933 0.8111 3.2960 0
M  V30 46 Ag -2.7508 -4.4439 0.7416 0
M  V30 47 Fe -0.6848 -4.6343 -0.4211 0
M  V30 48 Ag 1.3828 -4.8345 -1.5792 0
M  V30 49 Ag -6.0026 -0.2291 -2.9363 0
M  V30 50 Fe -6.3448 1.9123 -1.9771 0
M  V30 51 Ag -6.3409 4.1023 -1.0674 0
M  V30 52 Ag 6.4980 -3.6591 1.7736 0
M  V30 53 Fe 5.3127 -1.9384 2.9030 0
M  V30 54 Ag 4.3207 0.1137 3.5714 0
M  V30 55 Ag 8.2112 -2.2711 1.1880 0
M  V30 56 Fe 7.4583 -0.2892 2.2314 0
M  V30 57 Ag 6.0887 1.4702 3.0124 0
M  V30 58 Ag -4.1724 0.5259 -4.0740 0
M  V30 59 Fe -4.2553 2.7590 -3.2687 0
M  V30 60 Ag -4.4983 4.8651 -2.1982 0
M  V30 61 Ag -0.9704 4.3101 2.5419 0
M  V30 62 Fe -2.4596 3.0190 3.8625 0
M  V30 63 Ag -4.0274 1.5772 4.9074 0
M  V30 64 Ag 0.3417 4.0511 -0.6616 0
M  V30 65 Fe 2.0734 2.8199 -1.7276 0
M  V30 66 Ag 3.8472 1.5514 -2.6741 0
M  V30 67 Ag -6.0881 1.8884 4.0993 0
M  V30 68 Fe -6.1318 3.7116 2.5799 0
M  V30 69 Ag -5.9579 5.3503 0.8716 0
M  V30 70 Ag -3.1895 -1.7521 -4.2913 0
M  V30 71 Fe -1.0098 -2.6153 -3.9285 0
M  V30 72 Ag 1.1771 -3.4795 -3.6136 0
M  V30 73 Ba 6.4265 -4.7145 -0.5307 0
M  V30 74 Ga 5.1444 -4.7902 -1.2594 0
M  V30 75 Ba 3.8761 -4.9623 -1.9958 0
M  V30 76 Ba -1.1265 5.8723 0.5320 0
M  V30 77 Ga -2.5048 6.1932 0.1063 0
M  V30 78 Ba -3.8930 6.4673 -0.3195 0
M  V30 79 Ba 3.5635 -3.1953 -3.7685 0
M  V30 80 Ga 4.2644 -1.8991 -3.6784 0
M  V30 81 Ba 4.9708 -0.6047 -3.6077 0
M  V30 82 Ba -3.5933 -3.2167 2.7635 0
M  V30 83 Ga -3.8635 -2.1060 3.6974 0
M  V30 84 Ba -4.1641 -0.9771 4.5997 0
M  V30 85 Ba -5.7308 -2.8602 1.7076 0
M  V30 86 Ga -6.0529 -1.7599 2.6398 0
M  V30 87 Ba -6.3308 -0.6526 3.5777 0
M  V30 88 Ba -5.1609 -2.6564 -3.0112 0
M  V30 89 Ga -5.0371 -3.3227 -1.6984 0
M  V30 90 Ba -4.9172 -3.9955 -0.3885 0
M  V30 91 Ba 8.0027 -2.6874 -1.1170 0
M  V30 92 Ga 7.4201 -1.4743 -1.7379 0
M  V30 93 Ba 6.8342 -0.2579 -2.3490 0
M  V30 94 Ba 5.5814 1.9702 -1.3052 0
M  V30 95 Ga 5.2179 2.3585 0.0781 0
M  V30 96 Ba 4.8555 2.7303 1.4661 0
M  V30 97 Ba 0.2827 2.7782 1.3311 0
M  V30 98 Ga 1.5259 2.1530 1.8122 0
M  V30 99 Ba 2.7194 1.4372 2.2928 0
M  V30 END ATOM
M  V30 BEGIN BOND
M  V30 1 1 1 2
M  V30 2 1 1 3
M  V30 3 1 1 4
M  V30 4 1 1 5
M  V30 5 1 6 7
M  V30 6 1 6 8
M  V30 7 1 6 9
M  V30 8 1 6 10
M  V30 9 1 11 12
M  V30 10 1 11 13
M  V30 11 1 11 14
M  V30 12 1 11 15
M  V30 13 1 16 17
M  V30 14 1 16 18
M  V30 15 1 16 19
M  V30 16 1 16 20
M  V30 17 1 21 22
M  V30 18 1 21 23
M  V30 19 1 21 24
M  V30 20 1 21 25
M  V30 21 1 26 27
M  V30 22 1 26 28
M  V30 23 1 26 29
M  V30 24 1 26 30
M  V30 25 1 31 32
M  V30 26 1 31 33
M  V30 27 1 31 34
M  V30 28 1 31 35
M  V30 29 1 36 37
M  V30 30 1 36 38
M  V30 31 1 36 39
M  V30 32 1 36 40
M  V30 33 1 41 42
M  V30 34 1 41 43
M  V30 35 1 41 44
M  V30 36 1 41 45
M  V30 37 1 46 47
M  V30 38 1 47 48
M  V30 39 1 49 50
M  V30 40 1 50 51
M  V30 41 1 52 53
M  V30 42 1 53 54
M  V30 43 1 55 56
M  V30 44 1 56 57
M  V30 45 1 58 59
M  V30 46 1 59 60
M  V30 47 1 61 62
M  V30 48 1 62 63
M  V30 49 1 64 65
M  V30 50 1 65 66
M  V30 51 1 67 68
M  V30 52 1 68 69
M  V30 53 1 70 71
M  V30 54 1 71 72
M  V30 55 1 73 74
M  V30 56 1 74 75
M  V30 57 1 76 77
M  V30 58 1 77 78
M  V30 59 1 79 80
M  V30 60 1 80 81
M  V30 61 1 82 83
M  V30 62 1 83 84
M  V30 63 1 85 86
M  V30 64 1 86 87
M  V30 65 1 88 89
M  V30 66 1 89 90
M  V30 67 1 91 92
M  V30 68 1 92 93
M  V30 69 1 94 95
M  V30 70 1 95 96
M  V30 71 1 97 98
M  V30 72 1 98 99
M  V30 73 1 2 76
M  V30 74 1 3 97
M  V30 75 1 4 61
M  V30 76 1 5 64
M  V30 77 1 7 73
M  V30 78 1 8 55
M  V30 79 1 9 91
M  V30 80 1 10 52
M  V30 81 1 12 58
M  V30 82 1 13 70
M  V30 83 1 14 88
M  V30 84 1 15 49
M  V30 85 1 17 90
M  V30 86 1 18 82
M  V30 87 1 19 46
M  V30 88 1 20 85
M  V30 89 1 22 75
M  V30 90 1 23 72
M  V30 91 1 24 48
M  V30 92 1 25 79
M  V30 93 1 27 84
M  V30 94 1 28 67
M  V30 95 1 29 63
M  V30 96 1 30 87
M  V30 97 1 32 78
M  V30 98 1 33 69
M  V30 99 1 34 51
M  V30 100 1 35 60
M  V30 101 1 37 81
M  V30 102 1 38 94
M  V30 103 1 39 93
M  V30 104 1 40 66
M  V30 105 1 42 57
M  V30 106 1 43 99
M  V30 107 1 44 96
M  V30 108 1 45 54
M  V30 END BOND
M  V30 END CTAB
M  END

$$$$
