
     RDKit          3D

  0  0  0  0  0  0  0  0  0  0999 V3000
M  V30 BEGIN CTAB
M  V30 COUNTS 99 108 0 0 0
M  V30 BEGIN ATOM
M  V30 1 Pd 2.2162 1.2246 -2.6028 0
M  V30 2 Pb 1.6285 1.3739 -3.3956 0
M  V30 3 Pb 2.1058 0.5405 -3.3262 0
M  V30 4 Pb 2.5929 1.5324 -1.7321 0
M  V30 5 Pb 3.0238 1.5776 -3.0759 0
M  V30 6 Pd 0.8648 -5.2870 1.6245 0
M  V30 7 Pb 0.1902 -5.5936 2.2898 0
M  V30 8 Pb 0.3294 -5.7147 0.8983 0
M  V30 9 Pb 1.3538 -4.8239 2.3645 0
M  V30 10 Pb 1.5056 -4.9438 0.9376 0
M  V30 11 Pd -5.1233 -2.4434 4.8222 0
M  V30 12 Pb -4.3134 -1.9988 5.2093 0
M  V30 13 Pb -4.6158 -3.3008 4.8270 0
M  V30 14 Pb -5.8785 -2.8887 4.3435 0
M  V30 15 Pb -5.6400 -1.5872 4.7970 0
M  V30 16 Pd 5.9326 5.5024 -2.2845 0
M  V30 17 Pb 6.1605 6.3690 -1.8503 0
M  V30 18 Pb 6.9144 5.3766 -2.4336 0
M  V30 19 Pb 5.0366 5.5673 -1.8285 0
M  V30 20 Pb 5.7096 4.6552 -2.7713 0
M  V30 21 Pd -0.0851 -3.7738 -3.3362 0
M  V30 22 Pb 0.3221 -3.0548 -3.8995 0
M  V30 23 Pb 0.7549 -3.8019 -2.7908 0
M  V30 24 Pb -0.9356 -3.7606 -3.8694 0
M  V30 25 Pb -0.4492 -4.5286 -2.7930 0
M  V30 26 Pd -7.6461 -0.5355 0.8179 0
M  V30 27 Pb -7.6421 -0.1666 1.7477 0
M  V30 28 Pb -7.5623 -0.9096 -0.1272 0
M  V30 29 Pb -7.6093 0.3864 0.4520 0
M  V30 30 Pb -7.7168 -1.4541 1.2071 0
M  V30 31 Pd 6.1269 5.9666 2.4606 0
M  V30 32 Pb 5.9142 5.1867 3.0493 0
M  V30 33 Pb 7.1149 5.8481 2.5673 0
M  V30 34 Pb 6.3297 6.7530 1.8865 0
M  V30 35 Pb 5.2041 5.9659 2.0535 0
M  V30 36 Pd 1.9063 -0.1157 2.8962 0
M  V30 37 Pb 2.5400 0.3304 3.5244 0
M  V30 38 Pb 1.2436 -0.2988 3.6278 0
M  V30 39 Pb 2.2666 0.5188 2.2114 0
M  V30 40 Pb 2.0031 -0.9910 3.3714 0
M  V30 41 Pd -4.6405 -0.5887 -4.3591 0
M  V30 42 Pb -4.9737 0.3276 -4.1732 0
M  V30 43 Pb -3.8650 -0.1823 -4.8367 0
M  V30 44 Pb -5.4090 -0.9698 -3.8078 0
M  V30 45 Pb -4.2850 -1.5036 -4.5641 0
M  V30 46 Ag -7.5256 1.0167 0.0755 0
M  V30 47 Fe -6.4706 1.4837 -1.9753 0
M  V30 48 Ag -5.2593 0.9620 -3.9241 0
M  V30 49 Ag 5.7299 4.6087 3.4901 0
M  V30 50 Fe 4.4243 2.6500 3.7956 0
M  V30 51 Ag 3.0422 0.7241 3.9140 0
M  V30 52 Ag 1.1481 1.4210 -3.9668 0
M  V30 53 Fe -1.0406 0.8397 -4.6701 0
M  V30 54 Ag -3.2628 0.1506 -5.1283 0
M  V30 55 Ag -3.6612 -1.7091 5.4468 0
M  V30 56 Fe -1.4601 -1.0395 4.8430 0
M  V30 57 Ag 0.7268 -0.3906 4.1691 0
M  V30 58 Ag -0.3465 -5.7685 2.7770 0
M  V30 59 Fe -2.2924 -4.9508 3.8539 0
M  V30 60 Ag -4.2033 -3.9221 4.8057 0
M  V30 61 Ag 7.6308 5.3119 -2.2277 0
M  V30 62 Fe 8.3280 5.4486 0.0318 0
M  V30 63 Ag 7.8140 5.7365 2.3259 0
M  V30 64 Ba -6.4182 -3.1981 3.9266 0
M  V30 65 Ga -7.1231 -2.6965 2.7327 0
M  V30 66 Ba -7.7806 -2.1205 1.5455 0
M  V30 67 Ba 2.8574 1.7743 -1.0764 0
M  V30 68 Ga 2.7029 1.3697 0.3328 0
M  V30 69 Ba 2.5938 1.0234 1.7614 0
M  V30 70 Ba 1.9920 0.0620 -3.8947 0
M  V30 71 Ga 1.3275 -1.2412 -4.0899 0
M  V30 72 Ba 0.6723 -2.5431 -4.3219 0
M  V30 73 Ba 1.9513 -4.6790 0.3952 0
M  V30 74 Ga 1.6855 -4.2503 -0.9926 0
M  V30 75 Ba 1.3810 -3.8303 -2.3751 0
M  V30 76 Ba 6.3313 7.0014 -1.4951 0
M  V30 77 Ga 6.4238 7.2476 -0.0535 0
M  V30 78 Ba 6.4677 7.3072 1.4098 0
M  V30 79 Ba -0.0951 -6.0057 0.3548 0
M  V30 80 Ga -0.4061 -5.5760 -1.0193 0
M  V30 81 Ba -0.6898 -5.1103 -2.3876 0
M  V30 82 Ba 4.4493 5.6339 -1.3493 0
M  V30 83 Ga 4.4536 5.7906 0.1359 0
M  V30 84 Ba 4.5810 5.9427 1.6162 0
M  V30 85 Ba 3.6422 1.8219 -3.4237 0
M  V30 86 Ga 4.5886 2.9456 -3.2739 0
M  V30 87 Ba 5.5750 4.0409 -3.1842 0
M  V30 88 Ba -1.5825 -3.7954 -4.2551 0
M  V30 89 Ga -2.7834 -2.9618 -4.4818 0
M  V30 90 Ba -4.0101 -2.1794 -4.7496 0
M  V30 91 Ba -6.0620 -0.9689 4.7425 0
M  V30 92 Ga -6.8378 -0.4061 3.6205 0
M  V30 93 Ba -7.5864 0.0915 2.4502 0
M  V30 94 Ba 1.6728 -4.4728 2.9466 0
M  V30 95 Ga 1.8982 -3.0635 3.3233 0
M  V30 96 Ba 2.1243 -1.6546 3.7012 0
M  V30 97 Ba -7.5131 -1.2155 -0.8315 0
M  V30 98 Ga -6.7041 -1.1803 -2.0922 0
M  V30 99 Ba -6.0012 -1.2615 -3.4129 0
M  V30 END ATOM
M  V30 BEGIN BOND
M  V30 1 1 1 2
M  V30 2 1 1 3
M  V30 3 1 1 4
M  V30 4 1 1 5
M  V30 5 1 6 7
M  V30 6 1 6 8
M  V30 7 1 6 9
M  V30 8 1 6 10
M  V30 9 1 11 12
M  V30 10 1 11 13
M  V30 11 1 11 14
M  V30 12 1 11 15
M  V30 13 1 16 17
M  V30 14 1 16 18
M  V30 15 1 16 19
M  V30 16 1 16 20
M  V30 17 1 21 22
M  V30 18 1 21 23
M  V30 19 1 21 24
M  V30 20 1 21 25
M  V30 21 1 26 27
M  V30 22 1 26 28
M  V30 23 1 26 29
M  V30 24 1 26 30
M  V30 25 1 31 32
M  V30 26 1 31 33
M  V30 27 1 31 34
M  V30 28 1 31 35
M  V30 29 1 36 37
M  V30 30 1 36 38
M  V30 31 1 36 39
M  V30 32 1 36 40
M  V30 33 1 41 42
M  V30 34 1 41 43
M  V30 35 1 41 44
M  V30 36 1 41 45
M  V30 37 1 46 47
M  V30 38 1 47 48
M  V30 39 1 49 50
M  V30 40 1 50 51
M  V30 41 1 52 53
M  V30 42 1 53 54
M  V30 43 1 55 56
M  V30 44 1 56 57
M  V30 45 1 58 59
M  V30 46 1 59 60
M  V30 47 1 61 62
M  V30 48 1 62 63
M  V30 49 1 64 65
M  V30 50 1 65 66
M  V30 51 1 67 68
M  V30 52 1 68 69
M  V30 53 1 70 71
M  V30 54 1 71 72
M  V30 55 1 73 74
M  V30 56 1 74 75
M  V30 57 1 76 77
M  V30 58 1 77 78
M  V30 59 1 79 80
M  V30 60 1 80 81
M  V30 61 1 82 83
M  V30 62 1 83 84
M  V30 63 1 85 86
M  V30 64 1 86 87
M  V30 65 1 88 89
M  V30 66 1 89 90
M  V30 67 1 91 92
M  V30 68 1 92 93
M  V30 69 1 94 95
M  V30 70 1 95 96
M  V30 71 1 97 98
M  V30 72 1 98 99
M  V30 73 1 2 52
M  V30 74 1 3 70
M  V30 75 1 4 67
M  V30 76 1 5 85
M  V30 77 1 7 58
M  V30 78 1 8 79
M  V30 79 1 9 94
M  V30 80 1 10 73
M  V30 81 1 12 55
M  V30 82 1 13 60
M  V30 83 1 14 64
M  V30 84 1 15 91
M  V30 85 1 17 76
M  V30 86 1 18 61
M  V30 87 1 19 82
M  V30 88 1 20 87
M  V30 89 1 22 72
M  V30 90 1 23 75
M  V30 91 1 24 88
M  V30 92 1 25 81
M  V30 93 1 27 93
M  V30 94 1 28 97
M  V30 95 1 29 46
M  V30 96 1 30 66
M  V30 97 1 32 49
M  V30 98 1 33 63
M  V30 99 1 34 78
M  V30 100 1 35 84
M  V30 101 1 37 51
M  V30 102 1 38 57
M  V30 103 1 39 69
M  V30 104 1 40 96
M  V30 105 1 42 48
M  V30 106 1 43 54
M  V30 107 1 44 99
M  V30 108 1 45 90
M  V30 END BOND
M  V30 END CTAB
M  END

$$$$
