
     RDKit          3D

  0  0  0  0  0  0  0  0  0  0999 V3000
M  V30 BEGIN CTAB
M  V30 COUNTS 99 108 0 0 0
M  V30 BEGIN ATOM
M  V30 1 Pd 0.0195 -0.2696 5.0993 0
M  V30 2 Pb -0.0996 -1.2620 5.1506 0
M  V30 3 Pb 0.6286 -0.2396 5.8944 0
M  V30 4 Pb 0.1184 0.7209 5.0205 0
M  V30 5 Pb -0.5159 -0.2931 4.2574 0
M  V30 6 Pd 4.3251 2.1778 5.0374 0
M  V30 7 Pb 4.6074 2.5580 4.1560 0
M  V30 8 Pb 3.4471 2.6458 4.9740 0
M  V30 9 Pb 3.9884 1.7087 5.8563 0
M  V30 10 Pb 5.1892 1.6783 5.0690 0
M  V30 11 Pd 0.9223 -0.6647 -5.1146 0
M  V30 12 Pb 0.2879 -1.3520 -5.4777 0
M  V30 13 Pb 1.4979 0.0348 -4.6743 0
M  V30 14 Pb 0.4048 0.0416 -5.5907 0
M  V30 15 Pb 1.4203 -1.4178 -4.6921 0
M  V30 16 Pd -5.3155 2.9292 -4.3868 0
M  V30 17 Pb -5.2117 3.9204 -4.3709 0
M  V30 18 Pb -5.4025 1.9288 -4.4047 0
M  V30 19 Pb -5.8089 2.9913 -3.5075 0
M  V30 20 Pb -4.7048 2.8765 -5.1701 0
M  V30 21 Pd 0.5634 -5.7237 0.3859 0
M  V30 22 Pb -0.3303 -5.7013 -0.0665 0
M  V30 23 Pb 1.4652 -5.7334 0.8086 0
M  V30 24 Pb 1.0173 -5.6060 -0.4926 0
M  V30 25 Pb 0.1602 -5.7020 1.2999 0
M  V30 26 Pd 5.6365 -0.7641 1.3981 0
M  V30 27 Pb 5.5808 0.2255 1.2604 0
M  V30 28 Pb 4.9784 -0.9630 0.6650 0
M  V30 29 Pb 6.2394 -0.5943 2.1764 0
M  V30 30 Pb 5.6438 -1.7409 1.5885 0
M  V30 31 Pd -3.3126 -2.5687 -2.8568 0
M  V30 32 Pb -2.9339 -3.3883 -2.4130 0
M  V30 33 Pb -3.5914 -2.2300 -1.9597 0
M  V30 34 Pb -2.9361 -2.8421 -3.7448 0
M  V30 35 Pb -3.8657 -1.8644 -3.3187 0
M  V30 36 Pd 0.9063 1.0660 -0.2536 0
M  V30 37 Pb 0.5861 1.9475 0.1021 0
M  V30 38 Pb 1.4662 1.4735 -0.9780 0
M  V30 39 Pb 0.2647 0.6211 0.3746 0
M  V30 40 Pb 1.3395 0.2054 -0.5156 0
M  V30 41 Pd -3.7446 3.8556 0.7938 0
M  V30 42 Pb -4.6405 3.7316 0.3434 0
M  V30 43 Pb -3.7368 4.8062 0.4944 0
M  V30 44 Pb -3.7704 2.8855 1.0263 0
M  V30 45 Pb -2.7958 3.9485 1.0929 0
M  V30 46 Ag -0.0281 0.5264 -5.9584 0
M  V30 47 Fe -2.0698 1.7287 -5.9545 0
M  V30 48 Ag -4.1591 2.8092 -5.6718 0
M  V30 49 Ag -3.7272 -1.9375 -1.2840 0
M  V30 50 Fe -3.8088 0.0510 0.0085 0
M  V30 51 Ag -3.8427 2.1469 1.1209 0
M  V30 52 Ag 2.1539 -5.6883 1.0907 0
M  V30 53 Fe 3.9560 -4.2001 1.4750 0
M  V30 54 Ag 5.5538 -2.4687 1.7174 0
M  V30 55 Ag 1.7243 -2.0448 -4.4220 0
M  V30 56 Fe 1.6255 -3.7737 -2.8024 0
M  V30 57 Ag 1.3931 -5.4167 -1.1088 0
M  V30 58 Ag -0.2305 -2.0000 5.1049 0
M  V30 59 Fe -0.1982 -3.8824 3.6563 0
M  V30 60 Ag -0.0596 -5.5862 2.0071 0
M  V30 61 Ag -5.0931 4.6341 -4.2040 0
M  V30 62 Fe -4.4163 5.6039 -2.1665 0
M  V30 63 Ag -3.7886 5.4298 0.0968 0
M  V30 64 Ba 0.3876 2.5813 0.4583 0
M  V30 65 Ga -0.8474 3.2977 0.8388 0
M  V30 66 Ba -2.0644 4.0379 1.2316 0
M  V30 67 Ba 5.8284 1.2918 5.0226 0
M  V30 68 Ga 6.2997 0.4085 3.9426 0
M  V30 69 Ba 6.6396 -0.4445 2.7913 0
M  V30 70 Ba 1.1276 -0.1634 6.4522 0
M  V30 71 Ga 2.4131 0.5662 6.4943 0
M  V30 72 Ba 3.6799 1.3259 6.4257 0
M  V30 73 Ba -6.1456 3.0649 -2.8292 0
M  V30 74 Ga -5.7052 3.3401 -1.4328 0
M  V30 75 Ba -5.2948 3.6139 -0.0269 0
M  V30 76 Ba 0.2237 1.4596 4.9642 0
M  V30 77 Ga 1.4594 2.2571 4.9408 0
M  V30 78 Ba 2.7622 2.9396 4.9288 0
M  V30 79 Ba -0.8850 -0.3403 3.6082 0
M  V30 80 Ga -0.5595 -0.0024 2.2092 0
M  V30 81 Ba -0.2789 0.3164 0.7961 0
M  V30 82 Ba 4.8082 2.7661 3.4633 0
M  V30 83 Ga 5.1833 1.9276 2.3077 0
M  V30 84 Ba 5.5392 0.9749 1.2377 0
M  V30 85 Ba -0.2062 -1.8735 -5.7055 0
M  V30 86 Ga -1.4159 -2.4544 -5.0818 0
M  V30 87 Ba -2.6163 -2.9976 -4.4083 0
M  V30 88 Ba 4.4693 -1.1893 0.1547 0
M  V30 89 Ga 3.1134 -0.7944 -0.2845 0
M  V30 90 Ba 1.7598 -0.3823 -0.7147 0
M  V30 91 Ba -0.9872 -5.7148 -0.4320 0
M  V30 92 Ga -1.8297 -4.8159 -1.2529 0
M  V30 93 Ba -2.7844 -4.0557 -2.0901 0
M  V30 94 Ba -5.4825 1.1817 -4.4674 0
M  V30 95 Ga -4.8532 -0.0850 -4.0241 0
M  V30 96 Ba -4.3750 -1.4484 -3.6951 0
M  V30 97 Ba 1.8922 0.5810 -4.3282 0
M  V30 98 Ga 1.9016 1.1536 -2.9599 0
M  V30 99 Ba 1.8708 1.6872 -1.5764 0
M  V30 END ATOM
M  V30 BEGIN BOND
M  V30 1 1 1 2
M  V30 2 1 1 3
M  V30 3 1 1 4
M  V30 4 1 1 5
M  V30 5 1 6 7
M  V30 6 1 6 8
M  V30 7 1 6 9
M  V30 8 1 6 10
M  V30 9 1 11 12
M  V30 10 1 11 13
M  V30 11 1 11 14
M  V30 12 1 11 15
M  V30 13 1 16 17
M  V30 14 1 16 18
M  V30 15 1 16 19
M  V30 16 1 16 20
M  V30 17 1 21 22
M  V30 18 1 21 23
M  V30 19 1 21 24
M  V30 20 1 21 25
M  V30 21 1 26 27
M  V30 22 1 26 28
M  V30 23 1 26 29
M  V30 24 1 26 30
M  V30 25 1 31 32
M  V30 26 1 31 33
M  V30 27 1 31 34
M  V30 28 1 31 35
M  V30 29 1 36 37
M  V30 30 1 36 38
M  V30 31 1 36 39
M  V30 32 1 36 40
M  V30 33 1 41 42
M  V30 34 1 41 43
M  V30 35 1 41 44
M  V30 36 1 41 45
M  V30 37 1 46 47
M  V30 38 1 47 48
M  V30 39 1 49 50
M  V30 40 1 50 51
M  V30 41 1 52 53
M  V30 42 1 53 54
M  V30 43 1 55 56
M  V30 44 1 56 57
M  V30 45 1 58 59
M  V30 46 1 59 60
M  V30 47 1 61 62
M  V30 48 1 62 63
M  V30 49 1 64 65
M  V30 50 1 65 66
M  V30 51 1 67 68
M  V30 52 1 68 69
M  V30 53 1 70 71
M  V30 54 1 71 72
M  V30 55 1 73 74
M  V30 56 1 74 75
M  V30 57 1 76 77
M  V30 58 1 77 78
M  V30 59 1 79 80
M  V30 60 1 80 81
M  V30 61 1 82 83
M  V30 62 1 83 84
M  V30 63 1 85 86
M  V30 64 1 86 87
M  V30 65 1 88 89
M  V30 66 1 89 90
M  V30 67 1 91 92
M  V30 68 1 92 93
M  V30 69 1 94 95
M  V30 70 1 95 96
M  V30 71 1 97 98
M  V30 72 1 98 99
M  V30 73 1 2 58
M  V30 74 1 3 70
M  V30 75 1 4 76
M  V30 76 1 5 79
M  V30 77 1 7 82
M  V30 78 1 8 78
M  V30 79 1 9 72
M  V30 80 1 10 67
M  V30 81 1 12 85
M  V30 82 1 13 97
M  V30 83 1 14 46
M  V30 84 1 15 55
M  V30 85 1 17 61
M  V30 86 1 18 94
M  V30 87 1 19 73
M  V30 88 1 20 48
M  V30 89 1 22 91
M  V30 90 1 23 52
M  V30 91 1 24 57
M  V30 92 1 25 60
M  V30 93 1 27 84
M  V30 94 1 28 88
M  V30 95 1 29 69
M  V30 96 1 30 54
M  V30 97 1 32 93
M  V30 98 1 33 49
M  V30 99 1 34 87
M  V30 100 1 35 96
M  V30 101 1 37 64
M  V30 102 1 38 99
M  V30 103 1 39 81
M  V30 104 1 40 90
M  V30 105 1 42 75
M  V30 106 1 43 63
M  V30 107 1 44 51
M  V30 108 1 45 66
M  V30 END BOND
M  V30 END CTAB
M  END

$$$$
