
     RDKit          3D

  0  0  0  0  0  0  0  0  0  0999 V3000
M  V30 BEGIN CTAB
M  V30 COUNTS 99 108 0 0 0
M  V30 BEGIN ATOM
M  V30 1 Pd -2.1692 1.4417 -0.9147 0
M  V30 2 Pb -1.8252 1.5129 -1.8491 0
M  V30 3 Pb -1.2161 1.4782 -0.6112 0
M  V30 4 Pb -3.1087 1.3740 -1.2538 0
M  V30 5 Pb -2.5019 1.3294 0.0245 0
M  V30 6 Pd 4.8921 6.4315 1.8972 0
M  V30 7 Pb 4.9964 5.5648 2.3859 0
M  V30 8 Pb 5.2114 6.0018 1.0408 0
M  V30 9 Pb 4.3632 6.7787 2.6687 0
M  V30 10 Pb 4.7788 7.2888 1.3990 0
M  V30 11 Pd 3.0256 -5.1262 -1.5932 0
M  V30 12 Pb 3.5097 -4.5098 -2.2156 0
M  V30 13 Pb 3.3553 -4.6211 -0.7929 0
M  V30 14 Pb 2.4947 -5.7186 -0.9889 0
M  V30 15 Pb 2.6828 -5.6197 -2.3936 0
M  V30 16 Pd -3.5432 -5.2263 1.9199 0
M  V30 17 Pb -2.7442 -5.8159 1.8126 0
M  V30 18 Pb -3.9631 -5.6375 1.1129 0
M  V30 19 Pb -3.1035 -4.7929 2.7055 0
M  V30 20 Pb -4.3167 -4.5934 1.9742 0
M  V30 21 Pd 1.8912 -0.3014 4.5462 0
M  V30 22 Pb 2.6230 0.3743 4.4461 0
M  V30 23 Pb 2.4117 -0.9205 3.9531 0
M  V30 24 Pb 1.1682 -0.9819 4.6686 0
M  V30 25 Pb 1.3808 0.3131 5.1516 0
M  V30 26 Pd -5.5244 -2.6901 -1.9965 0
M  V30 27 Pb -5.4710 -3.6822 -1.8929 0
M  V30 28 Pb -5.1623 -2.7802 -2.9249 0
M  V30 29 Pb -5.5713 -1.6935 -2.0851 0
M  V30 30 Pb -5.8348 -2.6298 -1.0465 0
M  V30 31 Pd 0.9759 -3.0679 -5.6741 0
M  V30 32 Pb 0.8093 -2.0846 -5.6834 0
M  V30 33 Pb 0.0026 -3.1922 -5.8661 0
M  V30 34 Pb 1.1148 -4.0525 -5.5794 0
M  V30 35 Pb 1.9284 -2.9322 -5.3991 0
M  V30 36 Pd -1.4744 3.8392 3.8873 0
M  V30 37 Pb -1.1706 3.3654 4.7134 0
M  V30 38 Pb -1.7275 4.2609 3.0174 0
M  V30 39 Pb -0.8829 4.6103 4.1320 0
M  V30 40 Pb -2.0279 3.0524 3.6174 0
M  V30 41 Pd 1.9694 4.6731 -2.1640 0
M  V30 42 Pb 2.9724 4.6432 -2.0426 0
M  V30 43 Pb 1.8766 3.8031 -1.6756 0
M  V30 44 Pb 0.9835 4.7938 -2.0844 0
M  V30 45 Pb 2.0594 5.5867 -2.5550 0
M  V30 46 Ag 5.0646 4.9194 2.7625 0
M  V30 47 Fe 4.1126 2.8939 3.5599 0
M  V30 48 Ag 3.1907 0.8605 4.3722 0
M  V30 49 Ag -1.5218 1.5165 -2.5329 0
M  V30 50 Fe -0.4365 0.1838 -4.1677 0
M  V30 51 Ag 0.6174 -1.3649 -5.6227 0
M  V30 52 Ag -2.7472 -4.4684 3.2792 0
M  V30 53 Fe -1.0647 -2.9707 4.0316 0
M  V30 54 Ag 0.6163 -1.4753 4.7917 0
M  V30 55 Ag 4.6250 7.8201 0.9024 0
M  V30 56 Fe 3.4350 7.6265 -1.1219 0
M  V30 57 Ag 2.2197 6.3054 -2.6471 0
M  V30 58 Ag 2.0609 -6.1305 -0.5382 0
M  V30 59 Fe -0.0091 -6.2585 0.6161 0
M  V30 60 Ag -2.1205 -6.2141 1.6993 0
M  V30 61 Ag 3.8460 6.9407 3.1846 0
M  V30 62 Fe 1.7091 6.1566 3.8637 0
M  V30 63 Ag -0.3986 5.1567 4.3128 0
M  V30 64 Ag -1.8811 4.4983 2.3235 0
M  V30 65 Fe -0.9693 4.7669 0.1498 0
M  V30 66 Ag 0.2804 4.9079 -1.8613 0
M  V30 67 Ag -4.8507 -2.8856 -3.5996 0
M  V30 68 Fe -2.8389 -3.0740 -4.8485 0
M  V30 69 Ag -0.7413 -3.2334 -5.9515 0
M  V30 70 Ag 3.5947 -4.2532 -0.1822 0
M  V30 71 Fe 3.1813 -2.8058 1.6585 0
M  V30 72 Ag 2.8364 -1.3658 3.5191 0
M  V30 73 Ba 0.9871 0.7538 5.6171 0
M  V30 74 Ga 0.0397 1.8768 5.4704 0
M  V30 75 Ba -0.9060 2.9996 5.3120 0
M  V30 76 Ba -4.2818 -5.9040 0.4906 0
M  V30 77 Ga -4.8623 -5.2059 -0.6688 0
M  V30 78 Ba -5.4195 -4.4212 -1.7834 0
M  V30 79 Ba 2.4251 -5.9571 -3.0127 0
M  V30 80 Ga 1.8262 -5.4180 -4.2478 0
M  V30 81 Ba 1.2390 -4.7775 -5.4391 0
M  V30 82 Ba 5.3733 5.6651 0.3775 0
M  V30 83 Ga 4.5514 5.1608 -0.7605 0
M  V30 84 Ba 3.7192 4.6601 -1.8925 0
M  V30 85 Ba 3.8257 -4.0517 -2.7197 0
M  V30 86 Ga 3.2741 -3.4312 -3.9403 0
M  V30 87 Ba 2.6287 -2.8595 -5.1387 0
M  V30 88 Ba -4.8889 -4.1071 1.9595 0
M  V30 89 Ga -5.4914 -3.3453 0.8470 0
M  V30 90 Ba -6.0325 -2.6229 -0.3218 0
M  V30 91 Ba -3.8079 1.3116 -1.5211 0
M  V30 92 Ga -4.7084 0.1822 -1.8289 0
M  V30 93 Ba -5.6116 -0.9448 -2.1380 0
M  V30 94 Ba -2.7655 1.2197 0.7209 0
M  V30 95 Ga -2.5989 1.8441 2.0484 0
M  V30 96 Ba -2.4315 2.4695 3.3752 0
M  V30 97 Ba -0.4838 1.4868 -0.4434 0
M  V30 98 Ga 0.6571 2.3336 -0.8489 0
M  V30 99 Ba 1.7948 3.1830 -1.2577 0
M  V30 END ATOM
M  V30 BEGIN BOND
M  V30 1 1 1 2
M  V30 2 1 1 3
M  V30 3 1 1 4
M  V30 4 1 1 5
M  V30 5 1 6 7
M  V30 6 1 6 8
M  V30 7 1 6 9
M  V30 8 1 6 10
M  V30 9 1 11 12
M  V30 10 1 11 13
M  V30 11 1 11 14
M  V30 12 1 11 15
M  V30 13 1 16 17
M  V30 14 1 16 18
M  V30 15 1 16 19
M  V30 16 1 16 20
M  V30 17 1 21 22
M  V30 18 1 21 23
M  V30 19 1 21 24
M  V30 20 1 21 25
M  V30 21 1 26 27
M  V30 22 1 26 28
M  V30 23 1 26 29
M  V30 24 1 26 30
M  V30 25 1 31 32
M  V30 26 1 31 33
M  V30 27 1 31 34
M  V30 28 1 31 35
M  V30 29 1 36 37
M  V30 30 1 36 38
M  V30 31 1 36 39
M  V30 32 1 36 40
M  V30 33 1 41 42
M  V30 34 1 41 43
M  V30 35 1 41 44
M  V30 36 1 41 45
M  V30 37 1 46 47
M  V30 38 1 47 48
M  V30 39 1 49 50
M  V30 40 1 50 51
M  V30 41 1 52 53
M  V30 42 1 53 54
M  V30 43 1 55 56
M  V30 44 1 56 57
M  V30 45 1 58 59
M  V30 46 1 59 60
M  V30 47 1 61 62
M  V30 48 1 62 63
M  V30 49 1 64 65
M  V30 50 1 65 66
M  V30 51 1 67 68
M  V30 52 1 68 69
M  V30 53 1 70 71
M  V30 54 1 71 72
M  V30 55 1 73 74
M  V30 56 1 74 75
M  V30 57 1 76 77
M  V30 58 1 77 78
M  V30 59 1 79 80
M  V30 60 1 80 81
M  V30 61 1 82 83
M  V30 62 1 83 84
M  V30 63 1 85 86
M  V30 64 1 86 87
M  V30 65 1 88 89
M  V30 66 1 89 90
M  V30 67 1 91 92
M  V30 68 1 92 93
M  V30 69 1 94 95
M  V30 70 1 95 96
M  V30 71 1 97 98
M  V30 72 1 98 99
M  V30 73 1 2 49
M  V30 74 1 3 97
M  V30 75 1 4 91
M  V30 76 1 5 94
M  V30 77 1 7 46
M  V30 78 1 8 82
M  V30 79 1 9 61
M  V30 80 1 10 55
M  V30 81 1 12 85
M  V30 82 1 13 70
M  V30 83 1 14 58
M  V30 84 1 15 79
M  V30 85 1 17 60
M  V30 86 1 18 76
M  V30 87 1 19 52
M  V30 88 1 20 88
M  V30 89 1 22 48
M  V30 90 1 23 72
M  V30 91 1 24 54
M  V30 92 1 25 73
M  V30 93 1 27 78
M  V30 94 1 28 67
M  V30 95 1 29 93
M  V30 96 1 30 90
M  V30 97 1 32 51
M  V30 98 1 33 69
M  V30 99 1 34 81
M  V30 100 1 35 87
M  V30 101 1 37 75
M  V30 102 1 38 64
M  V30 103 1 39 63
M  V30 104 1 40 96
M  V30 105 1 42 84
M  V30 106 1 43 99
M  V30 107 1 44 66
M  V30 108 1 45 57
M  V30 END BOND
M  V30 END CTAB
M  END

$$$$
