
     RDKit          3D

  0  0  0  0  0  0  0  0  0  0999 V3000
M  V30 BEGIN CTAB
M  V30 COUNTS 99 108 0 0 0
M  V30 BEGIN ATOM
M  V30 1 Pd 0.4017 0.4364 -6.9031 0
M  V30 2 Pb -0.0274 1.3221 -6.7328 0
M  V30 3 Pb -0.4520 -0.0190 -6.6581 0
M  V30 4 Pb 0.8193 -0.4410 -7.1137 0
M  V30 5 Pb 1.3183 0.8668 -6.9306 0
M  V30 6 Pd -5.0310 -0.1176 1.8052 0
M  V30 7 Pb -5.2395 -1.0924 1.7471 0
M  V30 8 Pb -5.6379 0.0138 1.0363 0
M  V30 9 Pb -4.4957 -0.3279 2.6292 0
M  V30 10 Pb -4.7255 0.8657 1.7333 0
M  V30 11 Pd -3.2235 4.4095 -1.8037 0
M  V30 12 Pb -2.9888 4.5690 -2.7588 0
M  V30 13 Pb -3.4225 4.1050 -0.8383 0
M  V30 14 Pb -4.0433 3.9520 -2.1115 0
M  V30 15 Pb -2.4180 4.9760 -1.6050 0
M  V30 16 Pd -1.8757 -1.8980 -0.2954 0
M  V30 17 Pb -1.3494 -2.4314 -0.9576 0
M  V30 18 Pb -2.1229 -1.8343 -1.2657 0
M  V30 19 Pb -2.5778 -2.5962 -0.1639 0
M  V30 20 Pb -2.0349 -1.6528 0.6667 0
M  V30 21 Pd 5.2934 0.2517 -3.8729 0
M  V30 22 Pb 5.7299 -0.2788 -3.1450 0
M  V30 23 Pb 5.3235 -0.5674 -4.4357 0
M  V30 24 Pb 4.8168 0.7343 -4.6317 0
M  V30 25 Pb 5.2348 1.0666 -3.2907 0
M  V30 26 Pd 0.1143 -4.5595 5.8379 0
M  V30 27 Pb -0.7227 -4.0141 5.7224 0
M  V30 28 Pb 0.3901 -3.8457 6.4721 0
M  V30 29 Pb 1.0207 -4.9849 5.8496 0
M  V30 30 Pb -0.1280 -5.2243 5.1343 0
M  V30 31 Pd 1.6012 5.6264 0.7689 0
M  V30 32 Pb 0.9934 6.1925 1.3141 0
M  V30 33 Pb 1.8117 5.1284 1.6204 0
M  V30 34 Pb 1.2079 6.0248 -0.0507 0
M  V30 35 Pb 2.2968 5.1227 0.2476 0
M  V30 36 Pd -1.1613 1.8705 4.0660 0
M  V30 37 Pb -1.2992 2.7661 4.4733 0
M  V30 38 Pb -1.5462 0.9723 3.8426 0
M  V30 39 Pb -0.3640 2.4973 4.0045 0
M  V30 40 Pb -0.7780 1.5117 4.9128 0
M  V30 41 Pd 3.9815 -5.8360 0.2724 0
M  V30 42 Pb 4.7349 -5.2166 0.0472 0
M  V30 43 Pb 3.1689 -6.3486 0.5438 0
M  V30 44 Pb 4.3194 -5.9842 1.2020 0
M  V30 45 Pb 3.5203 -5.6092 -0.5825 0
M  V30 46 Ag -0.1810 -5.7079 4.5667 0
M  V30 47 Fe 1.0353 -6.3357 2.6298 0
M  V30 48 Ag 2.5367 -6.6387 0.8189 0
M  V30 49 Ag -6.0336 0.1734 0.4376 0
M  V30 50 Fe -5.7624 1.7833 -1.2466 0
M  V30 51 Ag -4.6499 3.5717 -2.2794 0
M  V30 52 Ag 0.5162 -3.2122 6.8386 0
M  V30 53 Fe 0.1183 -0.9207 6.4034 0
M  V30 54 Ag -0.4781 1.1904 5.5152 0
M  V30 55 Ag 0.5545 6.4904 1.8285 0
M  V30 56 Fe -0.6569 5.4198 3.5349 0
M  V30 57 Ag -1.3947 3.4804 4.6400 0
M  V30 58 Ag 6.0315 -0.7444 -2.6385 0
M  V30 59 Fe 5.7161 -2.7122 -1.3439 0
M  V30 60 Ag 5.2467 -4.6912 -0.1147 0
M  V30 61 Ag -4.1846 -0.5865 3.2678 0
M  V30 62 Fe -2.7095 -2.0533 4.4287 0
M  V30 63 Ag -1.2645 -3.4891 5.6638 0
M  V30 64 Ag -0.3703 1.9760 -6.6082 0
M  V30 65 Fe -1.5715 3.3669 -5.1085 0
M  V30 66 Ag -2.7523 4.6048 -3.4657 0
M  V30 67 Ag -0.8944 -2.8227 -1.4072 0
M  V30 68 Fe 1.0826 -4.1346 -1.4525 0
M  V30 69 Ag 3.0695 -5.3933 -1.1382 0
M  V30 70 Ag 1.7083 -5.2649 5.7339 0
M  V30 71 Fe 3.2203 -5.7389 3.9630 0
M  V30 72 Ag 4.4229 -6.0698 1.9404 0
M  V30 73 Ag -1.0370 -0.3593 -6.3380 0
M  V30 74 Fe -1.7676 -1.1104 -4.2054 0
M  V30 75 Ag -2.3116 -1.7873 -1.9934 0
M  V30 76 Ag 5.1920 1.6789 -2.8543 0
M  V30 77 Fe 3.9657 3.2004 -1.4968 0
M  V30 78 Ag 2.8752 4.8025 -0.1164 0
M  V30 79 Ag 1.2470 -1.0387 -7.2028 0
M  V30 80 Fe 3.3409 -1.5726 -6.2699 0
M  V30 81 Ag 5.1951 -1.1402 -4.8863 0
M  V30 82 Ba 1.8850 4.7682 2.2859 0
M  V30 83 Ga 1.0523 3.8339 3.0983 0
M  V30 84 Ba 0.2850 2.9031 3.9762 0
M  V30 85 Ba -4.4893 1.6094 1.6784 0
M  V30 86 Ga -4.0430 2.6843 0.7117 0
M  V30 87 Ba -3.5801 3.8671 -0.1104 0
M  V30 88 Ba -5.2970 -1.8242 1.6044 0
M  V30 89 Ga -4.2987 -2.5678 0.8213 0
M  V30 90 Ba -3.1525 -3.0355 0.0272 0
M  V30 91 Ba -1.8412 5.4643 -1.6457 0
M  V30 92 Ga -0.5195 5.8466 -1.1093 0
M  V30 93 Ba 0.8010 6.2875 -0.6152 0
M  V30 94 Ba 2.0097 1.1900 -6.8930 0
M  V30 95 Ga 3.2289 1.1013 -6.0319 0
M  V30 96 Ba 4.4906 1.0873 -5.2299 0
M  V30 97 Ba -2.1856 -1.5487 1.3996 0
M  V30 98 Ga -1.9863 -0.5845 2.5044 0
M  V30 99 Ba -1.8476 0.3022 3.6813 0
M  V30 END ATOM
M  V30 BEGIN BOND
M  V30 1 1 1 2
M  V30 2 1 1 3
M  V30 3 1 1 4
M  V30 4 1 1 5
M  V30 5 1 6 7
M  V30 6 1 6 8
M  V30 7 1 6 9
M  V30 8 1 6 10
M  V30 9 1 11 12
M  V30 10 1 11 13
M  V30 11 1 11 14
M  V30 12 1 11 15
M  V30 13 1 16 17
M  V30 14 1 16 18
M  V30 15 1 16 19
M  V30 16 1 16 20
M  V30 17 1 21 22
M  V30 18 1 21 23
M  V30 19 1 21 24
M  V30 20 1 21 25
M  V30 21 1 26 27
M  V30 22 1 26 28
M  V30 23 1 26 29
M  V30 24 1 26 30
M  V30 25 1 31 32
M  V30 26 1 31 33
M  V30 27 1 31 34
M  V30 28 1 31 35
M  V30 29 1 36 37
M  V30 30 1 36 38
M  V30 31 1 36 39
M  V30 32 1 36 40
M  V30 33 1 41 42
M  V30 34 1 41 43
M  V30 35 1 41 44
M  V30 36 1 41 45
M  V30 37 1 46 47
M  V30 38 1 47 48
M  V30 39 1 49 50
M  V30 40 1 50 51
M  V30 41 1 52 53
M  V30 42 1 53 54
M  V30 43 1 55 56
M  V30 44 1 56 57
M  V30 45 1 58 59
M  V30 46 1 59 60
M  V30 47 1 61 62
M  V30 48 1 62 63
M  V30 49 1 64 65
M  V30 50 1 65 66
M  V30 51 1 67 68
M  V30 52 1 68 69
M  V30 53 1 70 71
M  V30 54 1 71 72
M  V30 55 1 73 74
M  V30 56 1 74 75
M  V30 57 1 76 77
M  V30 58 1 77 78
M  V30 59 1 79 80
M  V30 60 1 80 81
M  V30 61 1 82 83
M  V30 62 1 83 84
M  V30 63 1 85 86
M  V30 64 1 86 87
M  V30 65 1 88 89
M  V30 66 1 89 90
M  V30 67 1 91 92
M  V30 68 1 92 93
M  V30 69 1 94 95
M  V30 70 1 95 96
M  V30 71 1 97 98
M  V30 72 1 98 99
M  V30 73 1 2 64
M  V30 74 1 3 73
M  V30 75 1 4 79
M  V30 76 1 5 94
M  V30 77 1 7 88
M  V30 78 1 8 49
M  V30 79 1 9 61
M  V30 80 1 10 85
M  V30 81 1 12 66
M  V30 82 1 13 87
M  V30 83 1 14 51
M  V30 84 1 15 91
M  V30 85 1 17 67
M  V30 86 1 18 75
M  V30 87 1 19 90
M  V30 88 1 20 97
M  V30 89 1 22 58
M  V30 90 1 23 81
M  V30 91 1 24 96
M  V30 92 1 25 76
M  V30 93 1 27 63
M  V30 94 1 28 52
M  V30 95 1 29 70
M  V30 96 1 30 46
M  V30 97 1 32 55
M  V30 98 1 33 82
M  V30 99 1 34 93
M  V30 100 1 35 78
M  V30 101 1 37 57
M  V30 102 1 38 99
M  V30 103 1 39 84
M  V30 104 1 40 54
M  V30 105 1 42 60
M  V30 106 1 43 48
M  V30 107 1 44 72
M  V30 108 1 45 69
M  V30 END BOND
M  V30 END CTAB
M  END

$$$$
