
     RDKit          3D

  0  0  0  0  0  0  0  0  0  0999 V3000
M  V30 BEGIN CTAB
M  V30 COUNTS 99 108 0 0 0
M  V30 BEGIN ATOM
M  V30 1 Pd -0.4802 -1.6327 5.3623 0
M  V30 2 Pb -1.2346 -2.2903 5.2858 0
M  V30 3 Pb 0.2641 -0.9752 5.4881 0
M  V30 4 Pb -1.1319 -0.9012 5.5455 0
M  V30 5 Pb 0.1898 -2.3339 5.1235 0
M  V30 6 Pd 6.5885 4.3678 -0.3578 0
M  V30 7 Pb 5.7252 4.4208 -0.8601 0
M  V30 8 Pb 6.2141 4.9067 0.3957 0
M  V30 9 Pb 6.9294 3.6719 -0.9816 0
M  V30 10 Pb 7.4243 4.2475 0.1712 0
M  V30 11 Pd -4.2531 -4.3190 -4.7762 0
M  V30 12 Pb -5.0946 -4.2230 -4.2490 0
M  V30 13 Pb -3.3710 -4.2778 -5.2391 0
M  V30 14 Pb -4.6058 -3.7360 -5.5045 0
M  V30 15 Pb -3.8664 -4.7941 -3.9843 0
M  V30 16 Pd -3.9275 2.6507 -4.9774 0
M  V30 17 Pb -4.1995 2.0322 -5.7117 0
M  V30 18 Pb -4.7819 2.4364 -4.5065 0
M  V30 19 Pb -3.0508 2.8277 -5.4304 0
M  V30 20 Pb -3.6836 3.1935 -4.1719 0
M  V30 21 Pd 1.1964 0.6656 -4.6223 0
M  V30 22 Pb 1.5641 1.4460 -4.1133 0
M  V30 23 Pb 0.8477 -0.1195 -5.1341 0
M  V30 24 Pb 0.7016 1.3159 -5.2040 0
M  V30 25 Pb 1.6579 -0.0047 -4.0378 0
M  V30 26 Pd -5.9919 1.9144 1.9310 0
M  V30 27 Pb -6.4920 1.7892 1.0769 0
M  V30 28 Pb -6.5177 1.2059 2.4045 0
M  V30 29 Pb -5.4612 2.0173 2.7680 0
M  V30 30 Pb -5.4162 2.5691 1.4347 0
M  V30 31 Pd -5.1781 -3.3219 2.3257 0
M  V30 32 Pb -4.6117 -3.4394 3.1466 0
M  V30 33 Pb -5.8057 -2.6996 2.7985 0
M  V30 34 Pb -4.5804 -3.9282 1.7982 0
M  V30 35 Pb -5.7543 -3.2745 1.5103 0
M  V30 36 Pd 5.6531 -2.3970 1.0902 0
M  V30 37 Pb 5.0263 -2.5656 0.3306 0
M  V30 38 Pb 6.2478 -2.1624 1.8624 0
M  V30 39 Pb 6.2228 -1.8880 0.4472 0
M  V30 40 Pb 5.0528 -2.8931 1.7172 0
M  V30 41 Pd 6.4006 2.1310 3.9315 0
M  V30 42 Pb 6.0683 3.0663 3.7767 0
M  V30 43 Pb 5.5484 1.8980 4.4020 0
M  V30 44 Pb 6.7366 1.1906 4.0238 0
M  V30 45 Pb 7.2572 2.3943 3.4917 0
M  V30 46 Ag 5.0685 4.4238 -1.2228 0
M  V30 47 Fe 3.4516 3.2338 -2.4940 0
M  V30 48 Ag 1.8228 2.0600 -3.7650 0
M  V30 49 Ag 1.9529 -0.5723 -3.6419 0
M  V30 50 Fe 3.2667 -1.5752 -1.9349 0
M  V30 51 Ag 4.5607 -2.6418 -0.2515 0
M  V30 52 Ag -5.3893 2.2671 -4.1028 0
M  V30 53 Fe -6.2216 1.9665 -1.9015 0
M  V30 54 Ag -6.7844 1.7335 0.3913 0
M  V30 55 Ag -3.6163 -5.0700 -3.3316 0
M  V30 56 Fe -3.8078 -4.8180 -0.9757 0
M  V30 57 Ag -4.1862 -4.3604 1.3260 0
M  V30 58 Ag -5.6527 -4.0931 -3.7686 0
M  V30 59 Fe -6.0484 -3.6836 -1.4647 0
M  V30 60 Ag -6.1520 -3.3040 0.8757 0
M  V30 61 Ag -3.5812 3.5290 -3.5068 0
M  V30 62 Fe -4.2134 3.3792 -1.2189 0
M  V30 63 Ag -4.9912 3.0127 0.9987 0
M  V30 64 Ag -4.7896 -3.2119 -6.0043 0
M  V30 65 Fe -4.6910 -0.8593 -6.2835 0
M  V30 66 Ag -4.4282 1.4950 -6.1785 0
M  V30 67 Ag 7.1647 3.0428 -1.3027 0
M  V30 68 Fe 6.9885 0.7235 -0.8472 0
M  V30 69 Ag 6.5839 -1.4772 -0.0639 0
M  V30 70 Ag -1.6084 -0.3321 5.6253 0
M  V30 71 Fe -3.3437 0.9150 4.5993 0
M  V30 72 Ag -5.0617 2.0217 3.3983 0
M  V30 73 Ag 0.7203 -2.8158 4.9067 0
M  V30 74 Fe 2.6615 -3.1038 3.5707 0
M  V30 75 Ag 4.5882 -3.2426 2.1906 0
M  V30 76 Ag 0.8063 -0.4731 5.6215 0
M  V30 77 Fe 2.8702 0.6028 5.1438 0
M  V30 78 Ag 4.9138 1.7586 4.7785 0
M  V30 79 Ag -2.7209 -4.1183 -5.5712 0
M  V30 80 Fe -0.9980 -2.4861 -5.5974 0
M  V30 81 Ag 0.6144 -0.7489 -5.4691 0
M  V30 82 Ba -1.8022 -2.7860 5.2832 0
M  V30 83 Ga -2.9925 -3.1413 4.4791 0
M  V30 84 Ba -4.2077 -3.5919 3.7649 0
M  V30 85 Ba -2.3960 2.9385 -5.7847 0
M  V30 86 Ga -1.0323 2.3731 -5.6950 0
M  V30 87 Ba 0.3391 1.8237 -5.6257 0
M  V30 88 Ba 8.0130 4.0919 0.6024 0
M  V30 89 Ga 8.0258 3.3709 1.8833 0
M  V30 90 Ba 7.8757 2.6387 3.1492 0
M  V30 91 Ba 5.9477 5.2010 1.0320 0
M  V30 92 Ga 5.8654 4.5409 2.3529 0
M  V30 93 Ba 5.8408 3.7671 3.6132 0
M  V30 94 Ba 6.6624 -1.9753 2.4621 0
M  V30 95 Ga 6.8358 -0.7441 3.2631 0
M  V30 96 Ba 7.0069 0.4888 4.0621 0
M  V30 97 Ba -6.8581 0.6590 2.7917 0
M  V30 98 Ga -6.5929 -0.7858 2.9563 0
M  V30 99 Ba -6.3065 -2.2283 3.1039 0
M  V30 END ATOM
M  V30 BEGIN BOND
M  V30 1 1 1 2
M  V30 2 1 1 3
M  V30 3 1 1 4
M  V30 4 1 1 5
M  V30 5 1 6 7
M  V30 6 1 6 8
M  V30 7 1 6 9
M  V30 8 1 6 10
M  V30 9 1 11 12
M  V30 10 1 11 13
M  V30 11 1 11 14
M  V30 12 1 11 15
M  V30 13 1 16 17
M  V30 14 1 16 18
M  V30 15 1 16 19
M  V30 16 1 16 20
M  V30 17 1 21 22
M  V30 18 1 21 23
M  V30 19 1 21 24
M  V30 20 1 21 25
M  V30 21 1 26 27
M  V30 22 1 26 28
M  V30 23 1 26 29
M  V30 24 1 26 30
M  V30 25 1 31 32
M  V30 26 1 31 33
M  V30 27 1 31 34
M  V30 28 1 31 35
M  V30 29 1 36 37
M  V30 30 1 36 38
M  V30 31 1 36 39
M  V30 32 1 36 40
M  V30 33 1 41 42
M  V30 34 1 41 43
M  V30 35 1 41 44
M  V30 36 1 41 45
M  V30 37 1 46 47
M  V30 38 1 47 48
M  V30 39 1 49 50
M  V30 40 1 50 51
M  V30 41 1 52 53
M  V30 42 1 53 54
M  V30 43 1 55 56
M  V30 44 1 56 57
M  V30 45 1 58 59
M  V30 46 1 59 60
M  V30 47 1 61 62
M  V30 48 1 62 63
M  V30 49 1 64 65
M  V30 50 1 65 66
M  V30 51 1 67 68
M  V30 52 1 68 69
M  V30 53 1 70 71
M  V30 54 1 71 72
M  V30 55 1 73 74
M  V30 56 1 74 75
M  V30 57 1 76 77
M  V30 58 1 77 78
M  V30 59 1 79 80
M  V30 60 1 80 81
M  V30 61 1 82 83
M  V30 62 1 83 84
M  V30 63 1 85 86
M  V30 64 1 86 87
M  V30 65 1 88 89
M  V30 66 1 89 90
M  V30 67 1 91 92
M  V30 68 1 92 93
M  V30 69 1 94 95
M  V30 70 1 95 96
M  V30 71 1 97 98
M  V30 72 1 98 99
M  V30 73 1 2 82
M  V30 74 1 3 76
M  V30 75 1 4 70
M  V30 76 1 5 73
M  V30 77 1 7 46
M  V30 78 1 8 91
M  V30 79 1 9 67
M  V30 80 1 10 88
M  V30 81 1 12 58
M  V30 82 1 13 79
M  V30 83 1 14 64
M  V30 84 1 15 55
M  V30 85 1 17 66
M  V30 86 1 18 52
M  V30 87 1 19 85
M  V30 88 1 20 61
M  V30 89 1 22 48
M  V30 90 1 23 81
M  V30 91 1 24 87
M  V30 92 1 25 49
M  V30 93 1 27 54
M  V30 94 1 28 97
M  V30 95 1 29 72
M  V30 96 1 30 63
M  V30 97 1 32 84
M  V30 98 1 33 99
M  V30 99 1 34 57
M  V30 100 1 35 60
M  V30 101 1 37 51
M  V30 102 1 38 94
M  V30 103 1 39 69
M  V30 104 1 40 75
M  V30 105 1 42 93
M  V30 106 1 43 78
M  V30 107 1 44 96
M  V30 108 1 45 90
M  V30 END BOND
M  V30 END CTAB
M  END

$$$$
