
     RDKit          3D

  0  0  0  0  0  0  0  0  0  0999 V3000
M  V30 BEGIN CTAB
M  V30 COUNTS 99 108 0 0 0
M  V30 BEGIN ATOM
M  V30 1 Pd -2.3778 -0.7189 -1.6645 0
M  V30 2 Pb -2.3899 -1.4262 -2.3733 0
M  V30 3 Pb -1.4048 -0.6101 -1.8732 0
M  V30 4 Pb -3.3485 -0.8339 -1.4433 0
M  V30 5 Pb -2.3680 0.0256 -0.9957 0
M  V30 6 Pd 3.3992 5.9353 -3.4055 0
M  V30 7 Pb 3.8770 5.8542 -2.5296 0
M  V30 8 Pb 2.9353 5.9669 -4.2903 0
M  V30 9 Pb 2.8728 6.7336 -3.0941 0
M  V30 10 Pb 3.8844 5.1172 -3.7241 0
M  V30 11 Pd 3.2786 -4.7395 1.4082 0
M  V30 12 Pb 2.7506 -5.5730 1.2418 0
M  V30 13 Pb 3.7970 -3.9019 1.5829 0
M  V30 14 Pb 3.1456 -4.8221 2.3957 0
M  V30 15 Pb 3.3610 -4.6232 0.4169 0
M  V30 16 Pd -1.7867 -2.6906 6.1105 0
M  V30 17 Pb -0.8876 -3.0851 6.2884 0
M  V30 18 Pb -2.1887 -3.5864 6.2539 0
M  V30 19 Pb -1.3646 -1.7856 6.0415 0
M  V30 20 Pb -2.6854 -2.3477 5.7684 0
M  V30 21 Pd 3.3844 2.7730 3.5154 0
M  V30 22 Pb 3.9860 3.2494 2.8746 0
M  V30 23 Pb 3.8406 1.9041 3.3177 0
M  V30 24 Pb 2.7156 2.3370 4.1198 0
M  V30 25 Pb 2.9302 3.6486 3.6608 0
M  V30 26 Pd -5.7339 -3.5583 1.9019 0
M  V30 27 Pb -5.7715 -4.3422 2.5092 0
M  V30 28 Pb -5.7644 -4.1930 1.1343 0
M  V30 29 Pb -5.7354 -2.7933 1.2530 0
M  V30 30 Pb -5.5403 -2.9574 2.7037 0
M  V30 31 Pd -0.3067 -5.6779 -2.2223 0
M  V30 32 Pb -0.6934 -5.0256 -2.8738 0
M  V30 33 Pb -1.2416 -5.9986 -2.0829 0
M  V30 34 Pb 0.6223 -5.3222 -2.3415 0
M  V30 35 Pb 0.0481 -6.3047 -1.5288 0
M  V30 36 Pd -1.0695 6.6304 -0.5144 0
M  V30 37 Pb -0.6171 6.8709 0.3401 0
M  V30 38 Pb -1.5075 6.3022 -1.3482 0
M  V30 39 Pb -0.5175 7.3028 -1.0122 0
M  V30 40 Pb -1.5077 5.8669 -0.0426 0
M  V30 41 Pd 1.1680 2.0587 -5.1462 0
M  V30 42 Pb 1.2455 2.8692 -5.7241 0
M  V30 43 Pb 1.1131 1.3100 -4.4827 0
M  V30 44 Pb 0.1978 2.2658 -5.0682 0
M  V30 45 Pb 2.1642 2.0029 -5.1298 0
M  V30 46 Ag 4.2558 5.7333 -1.8923 0
M  V30 47 Fe 4.3609 4.7135 0.2510 0
M  V30 48 Ag 4.3732 3.6595 2.3801 0
M  V30 49 Ag 2.5909 4.3133 3.6876 0
M  V30 50 Fe 1.1661 5.7576 2.4623 0
M  V30 51 Ag -0.2668 6.9449 0.9945 0
M  V30 52 Ag -1.0201 -1.1182 6.0527 0
M  V30 53 Fe 0.5928 0.4370 5.2606 0
M  V30 54 Ag 2.1656 2.0751 4.5600 0
M  V30 55 Ag -2.5649 -4.2214 6.2711 0
M  V30 56 Fe -4.2602 -5.0427 4.8660 0
M  V30 57 Ag -5.6991 -4.8745 3.0157 0
M  V30 58 Ag 3.0136 -4.8228 3.1338 0
M  V30 59 Fe 1.4872 -4.1700 4.8302 0
M  V30 60 Ag -0.2156 -3.4132 6.3002 0
M  V30 61 Ag -2.4168 0.5999 -0.5143 0
M  V30 62 Fe -2.1186 2.9126 -0.0629 0
M  V30 63 Ag -1.7695 5.2383 0.2694 0
M  V30 64 Ag -1.8118 5.9416 -1.9279 0
M  V30 65 Fe -1.3533 4.2593 -3.5329 0
M  V30 66 Ag -0.4660 2.5841 -4.9546 0
M  V30 67 Ag -5.6565 -4.6887 0.5869 0
M  V30 68 Fe -3.9134 -5.5358 -0.7792 0
M  V30 69 Ag -1.9660 -6.1557 -1.9822 0
M  V30 70 Ag 4.1778 -3.2788 1.7565 0
M  V30 71 Fe 4.1802 -1.0040 2.4427 0
M  V30 72 Ag 4.1977 1.2706 3.1294 0
M  V30 73 Ba -2.3371 -1.9200 -2.9378 0
M  V30 74 Ga -1.6963 -3.2354 -3.1358 0
M  V30 75 Ba -1.0551 -4.5515 -3.3290 0
M  V30 76 Ba 3.3780 -4.5443 -0.3304 0
M  V30 77 Ga 2.3716 -4.7950 -1.3828 0
M  V30 78 Ba 1.3266 -5.0639 -2.3923 0
M  V30 79 Ba 4.2089 4.4861 -3.9760 0
M  V30 80 Ga 3.6280 3.2477 -4.5315 0
M  V30 81 Ba 2.9062 2.0760 -5.0651 0
M  V30 82 Ba 2.6001 5.9194 -4.9589 0
M  V30 83 Ga 1.9402 4.7632 -5.5896 0
M  V30 84 Ba 1.3153 3.5232 -6.0811 0
M  V30 85 Ba 2.3495 -6.1885 1.0888 0
M  V30 86 Ga 1.3365 -6.4955 0.0611 0
M  V30 87 Ba 0.3300 -6.7423 -0.9889 0
M  V30 88 Ba -3.3588 -2.0921 5.4926 0
M  V30 89 Ga -4.3358 -2.3526 4.3828 0
M  V30 90 Ba -5.3815 -2.5204 3.3187 0
M  V30 91 Ba 2.4578 7.3311 -2.8895 0
M  V30 92 Ga 1.2041 7.5541 -2.1329 0
M  V30 93 Ba -0.0497 7.7685 -1.3742 0
M  V30 94 Ba -4.0733 -0.8631 -1.2431 0
M  V30 95 Ga -4.8994 -1.5800 -0.2476 0
M  V30 96 Ba -5.7837 -2.2589 0.7242 0
M  V30 97 Ba -0.6752 -0.5871 -2.0507 0
M  V30 98 Ga 0.1938 0.1185 -3.0146 0
M  V30 99 Ba 1.1271 0.7807 -3.9487 0
M  V30 END ATOM
M  V30 BEGIN BOND
M  V30 1 1 1 2
M  V30 2 1 1 3
M  V30 3 1 1 4
M  V30 4 1 1 5
M  V30 5 1 6 7
M  V30 6 1 6 8
M  V30 7 1 6 9
M  V30 8 1 6 10
M  V30 9 1 11 12
M  V30 10 1 11 13
M  V30 11 1 11 14
M  V30 12 1 11 15
M  V30 13 1 16 17
M  V30 14 1 16 18
M  V30 15 1 16 19
M  V30 16 1 16 20
M  V30 17 1 21 22
M  V30 18 1 21 23
M  V30 19 1 21 24
M  V30 20 1 21 25
M  V30 21 1 26 27
M  V30 22 1 26 28
M  V30 23 1 26 29
M  V30 24 1 26 30
M  V30 25 1 31 32
M  V30 26 1 31 33
M  V30 27 1 31 34
M  V30 28 1 31 35
M  V30 29 1 36 37
M  V30 30 1 36 38
M  V30 31 1 36 39
M  V30 32 1 36 40
M  V30 33 1 41 42
M  V30 34 1 41 43
M  V30 35 1 41 44
M  V30 36 1 41 45
M  V30 37 1 46 47
M  V30 38 1 47 48
M  V30 39 1 49 50
M  V30 40 1 50 51
M  V30 41 1 52 53
M  V30 42 1 53 54
M  V30 43 1 55 56
M  V30 44 1 56 57
M  V30 45 1 58 59
M  V30 46 1 59 60
M  V30 47 1 61 62
M  V30 48 1 62 63
M  V30 49 1 64 65
M  V30 50 1 65 66
M  V30 51 1 67 68
M  V30 52 1 68 69
M  V30 53 1 70 71
M  V30 54 1 71 72
M  V30 55 1 73 74
M  V30 56 1 74 75
M  V30 57 1 76 77
M  V30 58 1 77 78
M  V30 59 1 79 80
M  V30 60 1 80 81
M  V30 61 1 82 83
M  V30 62 1 83 84
M  V30 63 1 85 86
M  V30 64 1 86 87
M  V30 65 1 88 89
M  V30 66 1 89 90
M  V30 67 1 91 92
M  V30 68 1 92 93
M  V30 69 1 94 95
M  V30 70 1 95 96
M  V30 71 1 97 98
M  V30 72 1 98 99
M  V30 73 1 2 73
M  V30 74 1 3 97
M  V30 75 1 4 94
M  V30 76 1 5 61
M  V30 77 1 7 46
M  V30 78 1 8 82
M  V30 79 1 9 91
M  V30 80 1 10 79
M  V30 81 1 12 85
M  V30 82 1 13 70
M  V30 83 1 14 58
M  V30 84 1 15 76
M  V30 85 1 17 60
M  V30 86 1 18 55
M  V30 87 1 19 52
M  V30 88 1 20 88
M  V30 89 1 22 48
M  V30 90 1 23 72
M  V30 91 1 24 54
M  V30 92 1 25 49
M  V30 93 1 27 57
M  V30 94 1 28 67
M  V30 95 1 29 96
M  V30 96 1 30 90
M  V30 97 1 32 75
M  V30 98 1 33 69
M  V30 99 1 34 78
M  V30 100 1 35 87
M  V30 101 1 37 51
M  V30 102 1 38 64
M  V30 103 1 39 93
M  V30 104 1 40 63
M  V30 105 1 42 84
M  V30 106 1 43 99
M  V30 107 1 44 66
M  V30 108 1 45 81
M  V30 END BOND
M  V30 END CTAB
M  END

$$$$
