
     RDKit          3D

  0  0  0  0  0  0  0  0  0  0999 V3000
M  V30 BEGIN CTAB
M  V30 COUNTS 99 108 0 0 0
M  V30 BEGIN ATOM
M  V30 1 Pd -4.9674 -0.7983 -4.3499 0
M  V30 2 Pb -4.5385 -0.0459 -4.8462 0
M  V30 3 Pb -5.4356 -1.5360 -3.8570 0
M  V30 4 Pb -5.8609 -0.4648 -4.6400 0
M  V30 5 Pb -4.0624 -1.0481 -3.9956 0
M  V30 6 Pd -8.5387 -0.0786 -1.0895 0
M  V30 7 Pb -8.4983 0.8853 -0.7728 0
M  V30 8 Pb -8.5902 0.2057 -2.0453 0
M  V30 9 Pb -8.3711 -1.0119 -1.4048 0
M  V30 10 Pb -8.5136 -0.3807 -0.1425 0
M  V30 11 Pd 2.8693 -1.5071 -2.7300 0
M  V30 12 Pb 3.1026 -0.5713 -3.0004 0
M  V30 13 Pb 2.6268 -2.4183 -2.3933 0
M  V30 14 Pb 3.8256 -1.7267 -2.5394 0
M  V30 15 Pb 1.9086 -1.3255 -2.9423 0
M  V30 16 Pd 8.3961 -1.9364 2.4452 0
M  V30 17 Pb 8.5179 -1.6002 3.3748 0
M  V30 18 Pb 8.5364 -1.0185 2.0781 0
M  V30 19 Pb 8.1139 -2.8181 2.8305 0
M  V30 20 Pb 8.1999 -2.2346 1.5135 0
M  V30 21 Pd -1.4786 2.4005 -2.6165 0
M  V30 22 Pb -1.0856 2.3466 -1.7028 0
M  V30 23 Pb -1.8984 3.2709 -2.3591 0
M  V30 24 Pb -1.1420 1.4865 -2.8517 0
M  V30 25 Pb -1.8904 2.4503 -3.5229 0
M  V30 26 Pd -4.7512 3.3978 1.3982 0
M  V30 27 Pb -5.6888 3.4206 1.0042 0
M  V30 28 Pb -3.8288 3.2470 1.7509 0
M  V30 29 Pb -5.0941 2.8310 2.1398 0
M  V30 30 Pb -4.3915 3.9674 0.6556 0
M  V30 31 Pd 3.4867 2.7811 0.2317 0
M  V30 32 Pb 2.4924 2.6977 0.2661 0
M  V30 33 Pb 3.4592 2.8048 1.2296 0
M  V30 34 Pb 3.5055 2.6818 -0.7649 0
M  V30 35 Pb 4.4863 2.7940 0.2522 0
M  V30 36 Pd 0.4367 -2.1054 1.3146 0
M  V30 37 Pb 0.7320 -2.4256 2.2199 0
M  V30 38 Pb 0.7692 -2.9409 0.8824 0
M  V30 39 Pb 0.1097 -1.8511 0.4003 0
M  V30 40 Pb 0.1524 -1.2233 1.6948 0
M  V30 41 Pd 4.5999 -2.0910 5.3705 0
M  V30 42 Pb 5.0682 -2.9532 5.1685 0
M  V30 43 Pb 5.4828 -1.7130 5.6448 0
M  V30 44 Pb 4.2019 -1.1799 5.4459 0
M  V30 45 Pb 3.7075 -2.4707 5.1127 0
M  V30 46 Ag 4.5263 -1.9460 -2.3873 0
M  V30 47 Fe 6.3008 -2.1916 -0.8301 0
M  V30 48 Ag 8.0096 -2.3845 0.8059 0
M  V30 49 Ag -8.4054 -0.4861 0.5819 0
M  V30 50 Fe -7.0049 0.6729 2.0756 0
M  V30 51 Ag -5.4209 2.3369 2.5833 0
M  V30 52 Ag 3.4026 2.7451 1.9734 0
M  V30 53 Fe 3.6352 1.2470 3.7977 0
M  V30 54 Ag 3.9676 -0.4723 5.3975 0
M  V30 55 Ag -3.3603 -1.1468 -3.7392 0
M  V30 56 Fe -1.7769 -1.4491 -1.9889 0
M  V30 57 Ag -0.1154 -1.7506 -0.3124 0
M  V30 58 Ag -3.1566 3.0386 2.0082 0
M  V30 59 Fe -1.5578 1.2814 2.0139 0
M  V30 60 Ag -0.0345 -0.5407 1.9481 0
M  V30 61 Ag 8.5235 -0.3298 1.7852 0
M  V30 62 Fe 6.9951 1.3110 1.0064 0
M  V30 63 Ag 5.2320 2.7388 0.3076 0
M  V30 64 Ba 0.9101 -2.7129 2.8944 0
M  V30 65 Ga 2.0030 -2.6972 3.8921 0
M  V30 66 Ba 3.0283 -2.7575 4.9577 0
M  V30 67 Ba -5.8542 -2.0559 -3.5073 0
M  V30 68 Ga -6.9995 -1.9304 -2.5814 0
M  V30 69 Ba -8.1275 -1.6730 -1.6618 0
M  V30 70 Ba 7.8314 -3.4332 3.1609 0
M  V30 71 Ga 6.6683 -3.5617 4.0667 0
M  V30 72 Ba 5.4875 -3.5415 4.9582 0
M  V30 73 Ba -6.5347 -0.1767 -4.7823 0
M  V30 74 Ga -7.6180 0.1213 -3.8331 0
M  V30 75 Ba -8.6121 0.3639 -2.7765 0
M  V30 76 Ba -2.2481 3.8956 -2.1349 0
M  V30 77 Ga -3.1790 4.1640 -1.0198 0
M  V30 78 Ba -4.1072 4.3954 0.1057 0
M  V30 79 Ba -8.4231 1.6115 -0.5406 0
M  V30 80 Ga -7.3834 2.4815 0.0937 0
M  V30 81 Ba -6.4032 3.4209 0.7237 0
M  V30 82 Ba 3.2524 0.1452 -3.1718 0
M  V30 83 Ga 3.3988 1.3700 -2.3583 0
M  V30 84 Ba 3.5379 2.5702 -1.5077 0
M  V30 85 Ba -0.8193 2.3319 -1.0059 0
M  V30 86 Ga 0.4932 2.4711 -0.3542 0
M  V30 87 Ba 1.7594 2.5999 0.3849 0
M  V30 88 Ba 1.1866 -1.2282 -3.1220 0
M  V30 89 Ga 0.1505 -0.1781 -3.0585 0
M  V30 90 Ba -0.9709 0.7823 -3.0527 0
M  V30 91 Ba -4.2168 0.5323 -5.1951 0
M  V30 92 Ga -3.2165 1.5118 -4.7442 0
M  V30 93 Ba -2.2147 2.4380 -4.1953 0
M  V30 94 Ba 8.5202 -1.3597 4.0806 0
M  V30 95 Ga 7.3865 -1.3673 5.0161 0
M  V30 96 Ba 6.1597 -1.4469 5.8222 0
M  V30 97 Ba 2.4495 -3.0787 -2.0824 0
M  V30 98 Ga 1.7496 -3.3754 -0.8191 0
M  V30 99 Ba 1.0339 -3.5009 0.4634 0
M  V30 END ATOM
M  V30 BEGIN BOND
M  V30 1 1 1 2
M  V30 2 1 1 3
M  V30 3 1 1 4
M  V30 4 1 1 5
M  V30 5 1 6 7
M  V30 6 1 6 8
M  V30 7 1 6 9
M  V30 8 1 6 10
M  V30 9 1 11 12
M  V30 10 1 11 13
M  V30 11 1 11 14
M  V30 12 1 11 15
M  V30 13 1 16 17
M  V30 14 1 16 18
M  V30 15 1 16 19
M  V30 16 1 16 20
M  V30 17 1 21 22
M  V30 18 1 21 23
M  V30 19 1 21 24
M  V30 20 1 21 25
M  V30 21 1 26 27
M  V30 22 1 26 28
M  V30 23 1 26 29
M  V30 24 1 26 30
M  V30 25 1 31 32
M  V30 26 1 31 33
M  V30 27 1 31 34
M  V30 28 1 31 35
M  V30 29 1 36 37
M  V30 30 1 36 38
M  V30 31 1 36 39
M  V30 32 1 36 40
M  V30 33 1 41 42
M  V30 34 1 41 43
M  V30 35 1 41 44
M  V30 36 1 41 45
M  V30 37 1 46 47
M  V30 38 1 47 48
M  V30 39 1 49 50
M  V30 40 1 50 51
M  V30 41 1 52 53
M  V30 42 1 53 54
M  V30 43 1 55 56
M  V30 44 1 56 57
M  V30 45 1 58 59
M  V30 46 1 59 60
M  V30 47 1 61 62
M  V30 48 1 62 63
M  V30 49 1 64 65
M  V30 50 1 65 66
M  V30 51 1 67 68
M  V30 52 1 68 69
M  V30 53 1 70 71
M  V30 54 1 71 72
M  V30 55 1 73 74
M  V30 56 1 74 75
M  V30 57 1 76 77
M  V30 58 1 77 78
M  V30 59 1 79 80
M  V30 60 1 80 81
M  V30 61 1 82 83
M  V30 62 1 83 84
M  V30 63 1 85 86
M  V30 64 1 86 87
M  V30 65 1 88 89
M  V30 66 1 89 90
M  V30 67 1 91 92
M  V30 68 1 92 93
M  V30 69 1 94 95
M  V30 70 1 95 96
M  V30 71 1 97 98
M  V30 72 1 98 99
M  V30 73 1 2 91
M  V30 74 1 3 67
M  V30 75 1 4 73
M  V30 76 1 5 55
M  V30 77 1 7 79
M  V30 78 1 8 75
M  V30 79 1 9 69
M  V30 80 1 10 49
M  V30 81 1 12 82
M  V30 82 1 13 97
M  V30 83 1 14 46
M  V30 84 1 15 88
M  V30 85 1 17 94
M  V30 86 1 18 61
M  V30 87 1 19 70
M  V30 88 1 20 48
M  V30 89 1 22 85
M  V30 90 1 23 76
M  V30 91 1 24 90
M  V30 92 1 25 93
M  V30 93 1 27 81
M  V30 94 1 28 58
M  V30 95 1 29 51
M  V30 96 1 30 78
M  V30 97 1 32 87
M  V30 98 1 33 52
M  V30 99 1 34 84
M  V30 100 1 35 63
M  V30 101 1 37 64
M  V30 102 1 38 99
M  V30 103 1 39 57
M  V30 104 1 40 60
M  V30 105 1 42 72
M  V30 106 1 43 96
M  V30 107 1 44 54
M  V30 108 1 45 66
M  V30 END BOND
M  V30 END CTAB
M  END

$$$$
