
     RDKit          3D

  0  0  0  0  0  0  0  0  0  0999 V3000
M  V30 BEGIN CTAB
M  V30 COUNTS 99 108 0 0 0
M  V30 BEGIN ATOM
M  V30 1 Pd -2.9199 2.7977 -3.2956 0
M  V30 2 Pb -2.4067 2.3924 -4.0517 0
M  V30 3 Pb -2.2571 3.5501 -3.2661 0
M  V30 4 Pb -3.6129 2.0784 -3.3494 0
M  V30 5 Pb -3.3739 3.1227 -2.4697 0
M  V30 6 Pd 3.7687 5.5394 2.6970 0
M  V30 7 Pb 3.4559 4.7821 2.1295 0
M  V30 8 Pb 4.0333 6.0532 1.8636 0
M  V30 9 Pb 3.4016 5.0731 3.5055 0
M  V30 10 Pb 4.0317 6.3262 3.2514 0
M  V30 11 Pd 3.9330 -5.0432 -1.0095 0
M  V30 12 Pb 3.8793 -4.4275 -1.8243 0
M  V30 13 Pb 4.0219 -4.2814 -0.3625 0
M  V30 14 Pb 3.8865 -5.6657 -0.2325 0
M  V30 15 Pb 3.8659 -5.8305 -1.6088 0
M  V30 16 Pd -1.4514 -6.3227 3.3421 0
M  V30 17 Pb -0.5804 -6.8033 3.2839 0
M  V30 18 Pb -1.8468 -6.8861 2.6174 0
M  V30 19 Pb -1.0152 -5.7069 3.9977 0
M  V30 20 Pb -2.2994 -5.7920 3.3148 0
M  V30 21 Pd 1.1946 -1.5454 2.8356 0
M  V30 22 Pb 1.3347 -0.7855 2.2071 0
M  V30 23 Pb 2.0439 -1.9381 2.4685 0
M  V30 24 Pb 1.0619 -2.2761 3.5098 0
M  V30 25 Pb 0.3928 -1.0917 3.2316 0
M  V30 26 Pd -5.3771 -4.4727 -2.3098 0
M  V30 27 Pb -5.0374 -5.3726 -2.0393 0
M  V30 28 Pb -5.1213 -4.6187 -3.2652 0
M  V30 29 Pb -5.6529 -3.5446 -2.5530 0
M  V30 30 Pb -5.5299 -4.3004 -1.3355 0
M  V30 31 Pd 0.7854 -3.5423 -5.8126 0
M  V30 32 Pb 0.5485 -2.5697 -5.8495 0
M  V30 33 Pb -0.1173 -3.7656 -6.1773 0
M  V30 34 Pb 1.0170 -4.5057 -5.8527 0
M  V30 35 Pb 1.6479 -3.3611 -5.2960 0
M  V30 36 Pd -1.1691 3.6347 3.8094 0
M  V30 37 Pb -1.2125 2.6470 3.9874 0
M  V30 38 Pb -1.2157 4.6149 3.6095 0
M  V30 39 Pb -0.3047 3.7122 4.3167 0
M  V30 40 Pb -1.9978 3.5797 3.2577 0
M  V30 41 Pd 1.2186 8.9704 -0.3754 0
M  V30 42 Pb 2.1669 8.6886 -0.5529 0
M  V30 43 Pb 0.8935 8.3130 -1.0594 0
M  V30 44 Pb 0.3194 9.0235 0.0447 0
M  V30 45 Pb 1.5575 9.6142 0.3075 0
M  V30 46 Ag 3.1877 4.2190 1.7190 0
M  V30 47 Fe 2.3266 2.0110 1.6693 0
M  V30 48 Ag 1.4856 -0.2031 1.7662 0
M  V30 49 Ag -1.9778 2.0629 -4.5712 0
M  V30 50 Fe -0.8173 0.1067 -5.2586 0
M  V30 51 Ag 0.3435 -1.8519 -5.9390 0
M  V30 52 Ag -2.1690 -7.2230 2.0307 0
M  V30 53 Fe -3.4642 -6.7746 0.0923 0
M  V30 54 Ag -4.7487 -5.9992 -1.7472 0
M  V30 55 Ag 3.7387 -6.3483 -2.1189 0
M  V30 56 Fe 2.5416 -6.2724 -4.1402 0
M  V30 57 Ag 1.2554 -5.2014 -5.7905 0
M  V30 58 Ag 4.1099 7.0122 3.5228 0
M  V30 59 Fe 3.1771 8.9590 2.5841 0
M  V30 60 Ag 1.8851 9.9499 0.8835 0
M  V30 61 Ag -2.9354 -5.4167 3.1789 0
M  V30 62 Fe -4.3511 -4.7404 1.3942 0
M  V30 63 Ag -5.5501 -4.2158 -0.5894 0
M  V30 64 Ag 3.7521 -6.1287 0.3373 0
M  V30 65 Fe 2.0381 -6.7431 1.8540 0
M  V30 66 Ag 0.1082 -7.0741 3.1887 0
M  V30 67 Ag -4.1637 1.5697 -3.3747 0
M  V30 68 Fe -4.9978 -0.6318 -3.0664 0
M  V30 69 Ag -5.8103 -2.8406 -2.7525 0
M  V30 70 Ag -3.6789 3.2812 -1.8066 0
M  V30 71 Fe -3.2427 3.4694 0.5167 0
M  V30 72 Ag -2.5790 3.6088 2.7890 0
M  V30 73 Ag -1.3657 5.3182 3.3877 0
M  V30 74 Fe -0.9298 7.1871 1.9885 0
M  V30 75 Ag -0.2545 8.9158 0.5078 0
M  V30 76 Ag -1.7639 4.1185 -3.2943 0
M  V30 77 Fe -0.5721 5.9615 -2.3783 0
M  V30 78 Ag 0.6831 7.8207 -1.5887 0
M  V30 79 Ag -4.8605 -4.6683 -3.9664 0
M  V30 80 Fe -2.9169 -4.3558 -5.2934 0
M  V30 81 Ag -0.8218 -3.9620 -6.3381 0
M  V30 82 Ba -0.1956 -0.7674 3.5712 0
M  V30 83 Ga -0.7171 0.5956 3.8163 0
M  V30 84 Ba -1.3216 1.9120 4.1182 0
M  V30 85 Ba -0.6210 -5.2589 4.4521 0
M  V30 86 Ga 0.1469 -4.0131 4.2477 0
M  V30 87 Ba 0.9220 -2.7689 4.0622 0
M  V30 88 Ba 4.2147 6.4479 1.2347 0
M  V30 89 Ga 3.5493 7.4240 0.3245 0
M  V30 90 Ba 2.8667 8.3988 -0.5742 0
M  V30 91 Ba 3.8544 -3.9691 -2.4455 0
M  V30 92 Ga 3.0195 -3.6449 -3.6511 0
M  V30 93 Ba 2.2903 -3.2184 -4.8930 0
M  V30 94 Ba 3.0825 4.7389 4.1005 0
M  V30 95 Ga 1.7169 4.2459 4.3933 0
M  V30 96 Ba 0.3518 3.7528 4.6879 0
M  V30 97 Ba 4.1341 -3.7609 0.1707 0
M  V30 98 Ga 3.3636 -2.9714 1.1584 0
M  V30 99 Ba 2.7203 -2.1273 2.1906 0
M  V30 END ATOM
M  V30 BEGIN BOND
M  V30 1 1 1 2
M  V30 2 1 1 3
M  V30 3 1 1 4
M  V30 4 1 1 5
M  V30 5 1 6 7
M  V30 6 1 6 8
M  V30 7 1 6 9
M  V30 8 1 6 10
M  V30 9 1 11 12
M  V30 10 1 11 13
M  V30 11 1 11 14
M  V30 12 1 11 15
M  V30 13 1 16 17
M  V30 14 1 16 18
M  V30 15 1 16 19
M  V30 16 1 16 20
M  V30 17 1 21 22
M  V30 18 1 21 23
M  V30 19 1 21 24
M  V30 20 1 21 25
M  V30 21 1 26 27
M  V30 22 1 26 28
M  V30 23 1 26 29
M  V30 24 1 26 30
M  V30 25 1 31 32
M  V30 26 1 31 33
M  V30 27 1 31 34
M  V30 28 1 31 35
M  V30 29 1 36 37
M  V30 30 1 36 38
M  V30 31 1 36 39
M  V30 32 1 36 40
M  V30 33 1 41 42
M  V30 34 1 41 43
M  V30 35 1 41 44
M  V30 36 1 41 45
M  V30 37 1 46 47
M  V30 38 1 47 48
M  V30 39 1 49 50
M  V30 40 1 50 51
M  V30 41 1 52 53
M  V30 42 1 53 54
M  V30 43 1 55 56
M  V30 44 1 56 57
M  V30 45 1 58 59
M  V30 46 1 59 60
M  V30 47 1 61 62
M  V30 48 1 62 63
M  V30 49 1 64 65
M  V30 50 1 65 66
M  V30 51 1 67 68
M  V30 52 1 68 69
M  V30 53 1 70 71
M  V30 54 1 71 72
M  V30 55 1 73 74
M  V30 56 1 74 75
M  V30 57 1 76 77
M  V30 58 1 77 78
M  V30 59 1 79 80
M  V30 60 1 80 81
M  V30 61 1 82 83
M  V30 62 1 83 84
M  V30 63 1 85 86
M  V30 64 1 86 87
M  V30 65 1 88 89
M  V30 66 1 89 90
M  V30 67 1 91 92
M  V30 68 1 92 93
M  V30 69 1 94 95
M  V30 70 1 95 96
M  V30 71 1 97 98
M  V30 72 1 98 99
M  V30 73 1 2 49
M  V30 74 1 3 76
M  V30 75 1 4 67
M  V30 76 1 5 70
M  V30 77 1 7 46
M  V30 78 1 8 88
M  V30 79 1 9 94
M  V30 80 1 10 58
M  V30 81 1 12 91
M  V30 82 1 13 97
M  V30 83 1 14 64
M  V30 84 1 15 55
M  V30 85 1 17 66
M  V30 86 1 18 52
M  V30 87 1 19 85
M  V30 88 1 20 61
M  V30 89 1 22 48
M  V30 90 1 23 99
M  V30 91 1 24 87
M  V30 92 1 25 82
M  V30 93 1 27 54
M  V30 94 1 28 79
M  V30 95 1 29 69
M  V30 96 1 30 63
M  V30 97 1 32 51
M  V30 98 1 33 81
M  V30 99 1 34 57
M  V30 100 1 35 93
M  V30 101 1 37 84
M  V30 102 1 38 73
M  V30 103 1 39 96
M  V30 104 1 40 72
M  V30 105 1 42 90
M  V30 106 1 43 78
M  V30 107 1 44 75
M  V30 108 1 45 60
M  V30 END BOND
M  V30 END CTAB
M  END

$$$$
