
     RDKit          3D

  0  0  0  0  0  0  0  0  0  0999 V3000
M  V30 BEGIN CTAB
M  V30 COUNTS 99 108 0 0 0
M  V30 BEGIN ATOM
M  V30 1 Pd -4.6914 2.3492 0.9308 0
M  V30 2 Pb -4.7182 3.2997 0.6325 0
M  V30 3 Pb -4.6137 1.4144 1.2813 0
M  V30 4 Pb -5.2390 2.5751 1.7344 0
M  V30 5 Pb -4.0799 2.1579 0.1607 0
M  V30 6 Pd -2.9235 1.5211 5.3317 0
M  V30 7 Pb -2.0212 1.1012 5.4157 0
M  V30 8 Pb -3.8150 1.9555 5.2127 0
M  V30 9 Pb -3.2622 0.7431 4.8027 0
M  V30 10 Pb -2.5462 2.3538 5.7368 0
M  V30 11 Pd -2.5022 -0.4054 -3.6047 0
M  V30 12 Pb -1.9294 -0.2716 -4.4106 0
M  V30 13 Pb -3.0114 -0.5617 -2.7581 0
M  V30 14 Pb -2.3494 -1.3951 -3.6406 0
M  V30 15 Pb -2.6425 0.5888 -3.5846 0
M  V30 16 Pd 1.8965 -6.9037 -2.8647 0
M  V30 17 Pb 2.7550 -7.3910 -2.7389 0
M  V30 18 Pb 2.2586 -6.5641 -3.7290 0
M  V30 19 Pb 1.6743 -7.0535 -1.8859 0
M  V30 20 Pb 1.0338 -6.4173 -3.0171 0
M  V30 21 Pd -0.8344 4.7558 -1.3664 0
M  V30 22 Pb 0.0592 4.4450 -1.6944 0
M  V30 23 Pb -0.3618 5.2680 -0.6458 0
M  V30 24 Pb -1.3379 4.2519 -2.0753 0
M  V30 25 Pb -1.7146 5.1122 -1.0556 0
M  V30 26 Pd 1.1902 3.5828 3.5156 0
M  V30 27 Pb 1.1854 2.7241 4.0260 0
M  V30 28 Pb 1.7204 3.1425 2.7921 0
M  V30 29 Pb 0.6330 3.9865 4.2441 0
M  V30 30 Pb 1.1518 4.4270 2.9792 0
M  V30 31 Pd 4.4602 -0.2587 -4.1585 0
M  V30 32 Pb 4.2947 0.6650 -3.8165 0
M  V30 33 Pb 4.9771 -0.4587 -3.3224 0
M  V30 34 Pb 3.8290 -0.0782 -4.9080 0
M  V30 35 Pb 4.5344 -1.1925 -4.5116 0
M  V30 36 Pd -0.2745 -0.3472 0.5735 0
M  V30 37 Pb 0.0466 -0.9705 1.2864 0
M  V30 38 Pb -1.1873 -0.7502 0.5625 0
M  V30 39 Pb -0.6334 0.2707 -0.1232 0
M  V30 40 Pb 0.6115 0.1156 0.5740 0
M  V30 41 Pd 3.6460 -4.4157 1.6921 0
M  V30 42 Pb 3.0171 -5.1979 1.5386 0
M  V30 43 Pb 4.4147 -4.9933 1.4372 0
M  V30 44 Pb 4.2478 -3.6236 1.5953 0
M  V30 45 Pb 2.8869 -3.8601 2.0369 0
M  V30 46 Ag -2.2556 -2.1412 -3.6489 0
M  V30 47 Fe -0.9093 -4.0841 -3.3955 0
M  V30 48 Ag 0.3845 -6.0641 -3.1561 0
M  V30 49 Ag 5.2771 -0.5771 -2.6413 0
M  V30 50 Fe 5.0939 -1.7563 -0.5844 0
M  V30 51 Ag 4.6971 -3.0721 1.3559 0
M  V30 52 Ag -1.4357 -0.1586 -4.9601 0
M  V30 53 Fe 0.8939 -0.0293 -5.3778 0
M  V30 54 Ag 3.2636 0.0164 -5.3854 0
M  V30 55 Ag 0.7565 4.2680 -1.9115 0
M  V30 56 Fe 2.4291 2.7985 -2.7394 0
M  V30 57 Ag 4.1193 1.3489 -3.5667 0
M  V30 58 Ag 3.4207 -7.6369 -2.5309 0
M  V30 59 Fe 4.6980 -6.8938 -0.7043 0
M  V30 60 Ag 4.8993 -5.4809 1.1626 0
M  V30 61 Ag 2.6303 -6.2049 -4.2693 0
M  V30 62 Fe 3.6049 -4.0770 -4.6712 0
M  V30 63 Ag 4.4859 -1.8764 -4.8194 0
M  V30 64 Ba 0.2763 -1.4224 1.8389 0
M  V30 65 Ga 1.3158 -2.4493 2.0495 0
M  V30 66 Ba 2.3193 -3.4866 2.3591 0
M  V30 67 Ba -2.2150 2.9879 5.9625 0
M  V30 68 Ga -1.0130 3.6562 5.4241 0
M  V30 69 Ba 0.1976 4.2334 4.8055 0
M  V30 70 Ba -4.5454 0.7439 1.6138 0
M  V30 71 Ga -4.0447 0.4074 2.9615 0
M  V30 72 Ba -3.5193 0.2215 4.3287 0
M  V30 73 Ba 1.5616 -7.1198 -1.1307 0
M  V30 74 Ga 2.0622 -6.4359 0.1039 0
M  V30 75 Ba 2.5435 -5.7732 1.3576 0
M  V30 76 Ba -5.5867 2.7326 2.3777 0
M  V30 77 Ga -5.1020 2.5291 3.7528 0
M  V30 78 Ba -4.4805 2.2629 5.0606 0
M  V30 79 Ba -0.0066 5.6565 -0.1082 0
M  V30 80 Ga 0.5520 5.3525 1.2254 0
M  V30 81 Ba 1.1103 5.0480 2.5589 0
M  V30 82 Ba -3.5891 2.0702 -0.4024 0
M  V30 83 Ga -2.2846 1.3951 -0.5440 0
M  V30 84 Ba -0.9871 0.6976 -0.6258 0
M  V30 85 Ba -1.3223 0.8366 5.4594 0
M  V30 86 Ga -0.0623 1.4086 4.9549 0
M  V30 87 Ba 1.1270 2.0805 4.4041 0
M  V30 88 Ba 2.0922 2.7783 2.2531 0
M  V30 89 Ga 1.7127 1.6360 1.4024 0
M  V30 90 Ba 1.2589 0.4929 0.5900 0
M  V30 91 Ba -2.7342 1.3348 -3.6480 0
M  V30 92 Ga -2.2183 2.5982 -3.0731 0
M  V30 93 Ba -1.7872 3.9297 -2.5894 0
M  V30 94 Ba -4.6723 4.0116 0.4130 0
M  V30 95 Ga -3.5544 4.7311 -0.2178 0
M  V30 96 Ba -2.3864 5.3693 -0.8459 0
M  V30 97 Ba -3.3205 -0.7502 -2.1007 0
M  V30 98 Ga -2.6856 -0.8834 -0.7768 0
M  V30 99 Ba -1.9001 -0.9574 0.4683 0
M  V30 END ATOM
M  V30 BEGIN BOND
M  V30 1 1 1 2
M  V30 2 1 1 3
M  V30 3 1 1 4
M  V30 4 1 1 5
M  V30 5 1 6 7
M  V30 6 1 6 8
M  V30 7 1 6 9
M  V30 8 1 6 10
M  V30 9 1 11 12
M  V30 10 1 11 13
M  V30 11 1 11 14
M  V30 12 1 11 15
M  V30 13 1 16 17
M  V30 14 1 16 18
M  V30 15 1 16 19
M  V30 16 1 16 20
M  V30 17 1 21 22
M  V30 18 1 21 23
M  V30 19 1 21 24
M  V30 20 1 21 25
M  V30 21 1 26 27
M  V30 22 1 26 28
M  V30 23 1 26 29
M  V30 24 1 26 30
M  V30 25 1 31 32
M  V30 26 1 31 33
M  V30 27 1 31 34
M  V30 28 1 31 35
M  V30 29 1 36 37
M  V30 30 1 36 38
M  V30 31 1 36 39
M  V30 32 1 36 40
M  V30 33 1 41 42
M  V30 34 1 41 43
M  V30 35 1 41 44
M  V30 36 1 41 45
M  V30 37 1 46 47
M  V30 38 1 47 48
M  V30 39 1 49 50
M  V30 40 1 50 51
M  V30 41 1 52 53
M  V30 42 1 53 54
M  V30 43 1 55 56
M  V30 44 1 56 57
M  V30 45 1 58 59
M  V30 46 1 59 60
M  V30 47 1 61 62
M  V30 48 1 62 63
M  V30 49 1 64 65
M  V30 50 1 65 66
M  V30 51 1 67 68
M  V30 52 1 68 69
M  V30 53 1 70 71
M  V30 54 1 71 72
M  V30 55 1 73 74
M  V30 56 1 74 75
M  V30 57 1 76 77
M  V30 58 1 77 78
M  V30 59 1 79 80
M  V30 60 1 80 81
M  V30 61 1 82 83
M  V30 62 1 83 84
M  V30 63 1 85 86
M  V30 64 1 86 87
M  V30 65 1 88 89
M  V30 66 1 89 90
M  V30 67 1 91 92
M  V30 68 1 92 93
M  V30 69 1 94 95
M  V30 70 1 95 96
M  V30 71 1 97 98
M  V30 72 1 98 99
M  V30 73 1 2 94
M  V30 74 1 3 70
M  V30 75 1 4 76
M  V30 76 1 5 82
M  V30 77 1 7 85
M  V30 78 1 8 78
M  V30 79 1 9 72
M  V30 80 1 10 67
M  V30 81 1 12 52
M  V30 82 1 13 97
M  V30 83 1 14 46
M  V30 84 1 15 91
M  V30 85 1 17 58
M  V30 86 1 18 61
M  V30 87 1 19 73
M  V30 88 1 20 48
M  V30 89 1 22 55
M  V30 90 1 23 79
M  V30 91 1 24 93
M  V30 92 1 25 96
M  V30 93 1 27 87
M  V30 94 1 28 88
M  V30 95 1 29 69
M  V30 96 1 30 81
M  V30 97 1 32 57
M  V30 98 1 33 49
M  V30 99 1 34 54
M  V30 100 1 35 63
M  V30 101 1 37 64
M  V30 102 1 38 99
M  V30 103 1 39 84
M  V30 104 1 40 90
M  V30 105 1 42 75
M  V30 106 1 43 60
M  V30 107 1 44 51
M  V30 108 1 45 66
M  V30 END BOND
M  V30 END CTAB
M  END

$$$$
