
     RDKit          3D

  0  0  0  0  0  0  0  0  0  0999 V3000
M  V30 BEGIN CTAB
M  V30 COUNTS 99 108 0 0 0
M  V30 BEGIN ATOM
M  V30 1 Pd 7.7746 4.6802 7.7110 0
M  V30 2 Pb 7.9197 3.8357 7.1960 0
M  V30 3 Pb 7.6088 5.5302 8.2295 0
M  V30 4 Pb 7.7970 4.2010 8.5868 0
M  V30 5 Pb 7.6329 5.1628 6.8459 0
M  V30 6 Pd -6.3446 -7.8447 -10.2899 0
M  V30 7 Pb -6.3743 -8.2796 -9.3910 0
M  V30 8 Pb -7.0714 -7.1935 -10.0616 0
M  V30 9 Pb -5.4636 -8.2795 -10.4466 0
M  V30 10 Pb -6.1788 -7.3134 -11.1116 0
M  V30 11 Pd 0.4797 5.0118 4.3585 0
M  V30 12 Pb 1.0300 5.8209 4.5475 0
M  V30 13 Pb -0.1224 4.2326 4.1808 0
M  V30 14 Pb 0.0892 5.1335 5.2741 0
M  V30 15 Pb 0.9734 4.8607 3.4982 0
M  V30 16 Pd -4.3271 -1.8354 -8.7232 0
M  V30 17 Pb -4.2561 -2.2803 -9.6103 0
M  V30 18 Pb -4.4237 -1.3065 -7.8798 0
M  V30 19 Pb -5.3196 -1.9170 -8.8297 0
M  V30 20 Pb -3.3618 -2.0335 -8.5373 0
M  V30 21 Pd 5.4386 3.0202 3.2991 0
M  V30 22 Pb 5.7503 3.9311 3.5757 0
M  V30 23 Pb 5.1887 2.0991 2.9974 0
M  V30 24 Pb 4.6793 3.4109 2.7668 0
M  V30 25 Pb 6.1730 2.6241 3.8521 0
M  V30 26 Pd -4.0464 -1.7547 -1.3893 0
M  V30 27 Pb -4.2660 -0.9866 -1.9821 0
M  V30 28 Pb -3.0791 -1.5027 -1.4203 0
M  V30 29 Pb -3.9018 -2.1959 -0.5033 0
M  V30 30 Pb -3.7972 -2.7180 -1.4255 0
M  V30 31 Pd 0.0759 -2.0103 2.1149 0
M  V30 32 Pb -0.8519 -2.3834 2.0905 0
M  V30 33 Pb -0.6514 -1.3937 2.4039 0
M  V30 34 Pb -0.0286 -1.6920 1.1726 0
M  V30 35 Pb 1.0629 -2.0621 1.9884 0
M  V30 36 Pd -2.9164 -6.5022 -7.1624 0
M  V30 37 Pb -2.7907 -6.8960 -8.0765 0
M  V30 38 Pb -2.3478 -5.6939 -7.3729 0
M  V30 39 Pb -2.9747 -6.2346 -6.1992 0
M  V30 40 Pb -3.5667 -7.2442 -6.9782 0
M  V30 41 Pd 3.6056 7.2447 10.2699 0
M  V30 42 Pb 4.5877 7.4461 10.1968 0
M  V30 43 Pb 3.8207 6.6108 11.0102 0
M  V30 44 Pb 2.6522 6.9468 10.2014 0
M  V30 45 Pb 3.4520 7.7736 9.4406 0
M  V30 46 Ag -0.5901 3.6597 4.0515 0
M  V30 47 Fe -0.9472 1.4171 3.3607 0
M  V30 48 Ag -1.0925 -0.8394 2.6395 0
M  V30 49 Ag -3.6199 -3.4221 -1.5984 0
M  V30 50 Fe -3.2956 -4.8107 -3.4970 0
M  V30 51 Ag -2.9936 -6.1173 -5.4567 0
M  V30 52 Ag -7.4694 -6.5734 -9.9047 0
M  V30 53 Fe -6.9994 -4.2977 -9.3910 0
M  V30 54 Ag -6.0191 -2.1831 -8.9112 0
M  V30 55 Ag -5.9432 -6.8011 -11.5912 0
M  V30 56 Fe -5.0580 -4.6380 -11.2466 0
M  V30 57 Ag -4.2955 -2.6261 -10.2683 0
M  V30 58 Ag 5.0336 1.4011 2.7672 0
M  V30 59 Fe 3.4829 -0.3415 2.3253 0
M  V30 60 Ag 1.8025 -1.9727 1.9371 0
M  V30 61 Ag -4.5072 -0.8760 -7.2708 0
M  V30 62 Fe -4.4856 -0.5860 -4.9158 0
M  V30 63 Ag -4.4066 -0.5201 -2.5457 0
M  V30 64 Ag 1.3955 6.4311 4.7739 0
M  V30 65 Fe 2.4131 7.4127 6.6750 0
M  V30 66 Ag 3.3392 8.0535 8.7593 0
M  V30 67 Ag -0.1013 5.2473 5.9938 0
M  V30 68 Fe 0.7804 5.9569 8.0857 0
M  V30 69 Ag 1.9660 6.7110 10.0046 0
M  V30 70 Ag 7.6469 3.9674 9.2783 0
M  V30 71 Fe 5.9721 4.7190 10.7664 0
M  V30 72 Ag 4.1482 6.0758 11.4110 0
M  V30 73 Ba -6.2767 -8.5610 -8.7029 0
M  V30 74 Ga -5.2121 -8.2122 -7.7388 0
M  V30 75 Ba -4.0983 -7.7684 -6.8742 0
M  V30 76 Ba -2.6772 -2.3116 -8.3823 0
M  V30 77 Ga -2.2840 -3.6793 -7.9510 0
M  V30 78 Ba -1.9493 -5.0631 -7.5216 0
M  V30 79 Ba 8.0125 3.2204 6.7777 0
M  V30 80 Ga 7.3754 2.7564 5.5304 0
M  V30 81 Ba 6.7130 2.3294 4.2829 0
M  V30 82 Ba -2.3535 -1.3142 -1.4425 0
M  V30 83 Ga -1.2301 -1.3834 -0.4891 0
M  V30 84 Ba -0.1082 -1.4536 0.4659 0
M  V30 85 Ba 7.4646 5.5087 6.2009 0
M  V30 86 Ga 6.7530 5.0712 4.9827 0
M  V30 87 Ba 6.0366 4.5951 3.7818 0
M  V30 88 Ba -4.7388 -8.4441 -10.5123 0
M  V30 89 Ga -3.6685 -7.9064 -9.6503 0
M  V30 90 Ba -2.7077 -7.2948 -8.7111 0
M  V30 91 Ba 1.3852 4.7455 2.8776 0
M  V30 92 Ga 2.7461 4.2159 2.6255 0
M  V30 93 Ba 4.1054 3.6886 2.3603 0
M  V30 94 Ba 7.5057 6.1601 8.6407 0
M  V30 95 Ga 6.4042 6.8493 9.3605 0
M  V30 96 Ba 5.3264 7.5653 10.0899 0
M  V30 97 Ba -3.7923 -2.5256 0.1617 0
M  V30 98 Ga -2.6707 -2.5953 1.1170 0
M  V30 99 Ba -1.5476 -2.6635 2.0708 0
M  V30 END ATOM
M  V30 BEGIN BOND
M  V30 1 1 1 2
M  V30 2 1 1 3
M  V30 3 1 1 4
M  V30 4 1 1 5
M  V30 5 1 6 7
M  V30 6 1 6 8
M  V30 7 1 6 9
M  V30 8 1 6 10
M  V30 9 1 11 12
M  V30 10 1 11 13
M  V30 11 1 11 14
M  V30 12 1 11 15
M  V30 13 1 16 17
M  V30 14 1 16 18
M  V30 15 1 16 19
M  V30 16 1 16 20
M  V30 17 1 21 22
M  V30 18 1 21 23
M  V30 19 1 21 24
M  V30 20 1 21 25
M  V30 21 1 26 27
M  V30 22 1 26 28
M  V30 23 1 26 29
M  V30 24 1 26 30
M  V30 25 1 31 32
M  V30 26 1 31 33
M  V30 27 1 31 34
M  V30 28 1 31 35
M  V30 29 1 36 37
M  V30 30 1 36 38
M  V30 31 1 36 39
M  V30 32 1 36 40
M  V30 33 1 41 42
M  V30 34 1 41 43
M  V30 35 1 41 44
M  V30 36 1 41 45
M  V30 37 1 46 47
M  V30 38 1 47 48
M  V30 39 1 49 50
M  V30 40 1 50 51
M  V30 41 1 52 53
M  V30 42 1 53 54
M  V30 43 1 55 56
M  V30 44 1 56 57
M  V30 45 1 58 59
M  V30 46 1 59 60
M  V30 47 1 61 62
M  V30 48 1 62 63
M  V30 49 1 64 65
M  V30 50 1 65 66
M  V30 51 1 67 68
M  V30 52 1 68 69
M  V30 53 1 70 71
M  V30 54 1 71 72
M  V30 55 1 73 74
M  V30 56 1 74 75
M  V30 57 1 76 77
M  V30 58 1 77 78
M  V30 59 1 79 80
M  V30 60 1 80 81
M  V30 61 1 82 83
M  V30 62 1 83 84
M  V30 63 1 85 86
M  V30 64 1 86 87
M  V30 65 1 88 89
M  V30 66 1 89 90
M  V30 67 1 91 92
M  V30 68 1 92 93
M  V30 69 1 94 95
M  V30 70 1 95 96
M  V30 71 1 97 98
M  V30 72 1 98 99
M  V30 73 1 2 79
M  V30 74 1 3 94
M  V30 75 1 4 70
M  V30 76 1 5 85
M  V30 77 1 7 73
M  V30 78 1 8 52
M  V30 79 1 9 88
M  V30 80 1 10 55
M  V30 81 1 12 64
M  V30 82 1 13 46
M  V30 83 1 14 67
M  V30 84 1 15 91
M  V30 85 1 17 57
M  V30 86 1 18 61
M  V30 87 1 19 54
M  V30 88 1 20 76
M  V30 89 1 22 87
M  V30 90 1 23 58
M  V30 91 1 24 93
M  V30 92 1 25 81
M  V30 93 1 27 63
M  V30 94 1 28 82
M  V30 95 1 29 97
M  V30 96 1 30 49
M  V30 97 1 32 99
M  V30 98 1 33 48
M  V30 99 1 34 84
M  V30 100 1 35 60
M  V30 101 1 37 90
M  V30 102 1 38 78
M  V30 103 1 39 51
M  V30 104 1 40 75
M  V30 105 1 42 96
M  V30 106 1 43 72
M  V30 107 1 44 69
M  V30 108 1 45 66
M  V30 END BOND
M  V30 END CTAB
M  END

$$$$
