
     RDKit          3D

  0  0  0  0  0  0  0  0  0  0999 V3000
M  V30 BEGIN CTAB
M  V30 COUNTS 99 108 0 0 0
M  V30 BEGIN ATOM
M  V30 1 Pd -5.5244 2.0199 -3.5473 0
M  V30 2 Pb -5.4781 2.4993 -2.6683 0
M  V30 3 Pb -6.1583 1.3663 -3.1446 0
M  V30 4 Pb -5.5911 1.5176 -4.4008 0
M  V30 5 Pb -4.7927 2.6028 -3.9498 0
M  V30 6 Pd 2.0243 -2.4335 3.7101 0
M  V30 7 Pb 2.4828 -1.5530 3.8384 0
M  V30 8 Pb 1.5634 -3.3201 3.6337 0
M  V30 9 Pb 1.5249 -2.3200 4.5685 0
M  V30 10 Pb 2.4933 -2.5263 2.8244 0
M  V30 11 Pd 4.0479 3.9210 0.3318 0
M  V30 12 Pb 3.1032 4.1808 0.5184 0
M  V30 13 Pb 4.9797 3.5954 0.1839 0
M  V30 14 Pb 4.1171 3.5502 1.2547 0
M  V30 15 Pb 3.9229 4.1945 -0.6200 0
M  V30 16 Pd 5.4607 -0.9531 0.9318 0
M  V30 17 Pb 5.0123 -0.5962 1.7554 0
M  V30 18 Pb 6.0168 -0.1243 0.8441 0
M  V30 19 Pb 5.8482 -1.2759 0.0739 0
M  V30 20 Pb 4.8832 -1.7749 0.9273 0
M  V30 21 Pd -1.6210 -3.8481 0.7869 0
M  V30 22 Pb -1.6792 -3.1931 0.0333 0
M  V30 23 Pb -1.4575 -4.4485 1.5614 0
M  V30 24 Pb -2.5784 -3.7092 1.0586 0
M  V30 25 Pb -0.6598 -4.0145 0.5797 0
M  V30 26 Pd -1.0713 1.1890 4.6359 0
M  V30 27 Pb -0.0730 1.1348 4.5828 0
M  V30 28 Pb -1.0600 1.9488 3.9898 0
M  V30 29 Pb -1.0295 0.4269 5.2761 0
M  V30 30 Pb -2.0681 1.2108 4.6786 0
M  V30 31 Pd -0.1048 1.9129 -5.7699 0
M  V30 32 Pb -0.7031 1.3425 -6.3187 0
M  V30 33 Pb 0.6096 1.2261 -5.8870 0
M  V30 34 Pb 0.5358 2.5185 -5.2949 0
M  V30 35 Pb -0.8888 2.5293 -5.5660 0
M  V30 36 Pd 2.3007 -1.7334 -2.3569 0
M  V30 37 Pb 2.5308 -1.9708 -1.4025 0
M  V30 38 Pb 3.2711 -1.8573 -2.5558 0
M  V30 39 Pb 1.3152 -1.6304 -2.1836 0
M  V30 40 Pb 2.1802 -1.4935 -3.3230 0
M  V30 41 Pd -5.5649 0.0864 1.3208 0
M  V30 42 Pb -5.2356 0.3680 2.2236 0
M  V30 43 Pb -5.4770 -0.8812 1.5620 0
M  V30 44 Pb -5.5873 1.0421 1.0208 0
M  V30 45 Pb -6.0232 -0.1744 0.4734 0
M  V30 46 Ag 2.3901 4.3093 0.7005 0
M  V30 47 Fe 0.6099 3.5153 2.0506 0
M  V30 48 Ag -0.9727 2.5049 3.4987 0
M  V30 49 Ag -5.4973 1.1424 -5.0295 0
M  V30 50 Fe -3.5385 0.7460 -6.2669 0
M  V30 51 Ag -1.2342 0.9718 -6.6744 0
M  V30 52 Ag 4.6614 -0.3021 2.3539 0
M  V30 53 Fe 2.6516 0.3580 3.4437 0
M  V30 54 Ag 0.6742 1.0608 4.5594 0
M  V30 55 Ag 3.7520 4.3486 -1.3321 0
M  V30 56 Fe 2.4115 3.6896 -3.1788 0
M  V30 57 Ag 1.0424 2.9792 -4.9851 0
M  V30 58 Ag 2.8254 -0.8915 3.9321 0
M  V30 59 Fe 3.5454 1.1715 2.9974 0
M  V30 60 Ag 4.1423 3.1943 1.9109 0
M  V30 61 Ag 4.4554 -2.3891 0.8302 0
M  V30 62 Fe 2.3063 -3.3943 0.6672 0
M  V30 63 Ag 0.0698 -4.1660 0.5167 0
M  V30 64 Ba -3.2878 -3.6489 1.3094 0
M  V30 65 Ga -4.3271 -2.6130 1.4954 0
M  V30 66 Ba -5.3999 -1.6154 1.7011 0
M  V30 67 Ba -5.4746 2.8294 -1.9921 0
M  V30 68 Ga -5.5238 2.3095 -0.6091 0
M  V30 69 Ba -5.5736 1.7462 0.7569 0
M  V30 70 Ba 1.0941 0.6594 -5.9490 0
M  V30 71 Ga 1.6342 -0.3232 -4.9884 0
M  V30 72 Ba 2.1909 -1.3243 -4.0570 0
M  V30 73 Ba -6.5713 0.8304 -2.8308 0
M  V30 74 Ga -6.5212 0.2285 -1.4897 0
M  V30 75 Ba -6.4270 -0.3376 -0.1353 0
M  V30 76 Ba -1.6540 -2.6824 -0.5164 0
M  V30 77 Ga -0.5388 -2.1197 -1.3101 0
M  V30 78 Ba 0.5674 -1.5474 -2.1095 0
M  V30 79 Ba 2.8832 -2.5861 2.1792 0
M  V30 80 Ga 2.7829 -2.2874 0.7274 0
M  V30 81 Ba 2.8602 -2.1828 -0.7510 0
M  V30 82 Ba 6.0418 -1.5080 -0.6064 0
M  V30 83 Ga 5.1028 -1.7587 -1.7062 0
M  V30 84 Ba 4.0054 -1.9505 -2.6622 0
M  V30 85 Ba 5.6628 3.2903 0.1597 0
M  V30 86 Ga 6.0839 1.9010 0.4254 0
M  V30 87 Ba 6.4248 0.4924 0.7051 0
M  V30 88 Ba 1.1727 -3.9633 3.6508 0
M  V30 89 Ga -0.0100 -4.4653 2.9299 0
M  V30 90 Ba -1.1838 -4.8473 2.1267 0
M  V30 91 Ba 1.0995 -2.2395 5.1803 0
M  V30 92 Ga 0.0826 -1.2317 5.5210 0
M  V30 93 Ba -0.8981 -0.1542 5.7254 0
M  V30 94 Ba -2.8153 1.2163 4.7124 0
M  V30 95 Ga -3.9177 0.8970 3.7860 0
M  V30 96 Ba -5.0742 0.5969 2.9213 0
M  V30 97 Ba -4.2438 3.0429 -4.2587 0
M  V30 98 Ga -2.8588 2.9530 -4.8215 0
M  V30 99 Ba -1.4802 2.9925 -5.4054 0
M  V30 END ATOM
M  V30 BEGIN BOND
M  V30 1 1 1 2
M  V30 2 1 1 3
M  V30 3 1 1 4
M  V30 4 1 1 5
M  V30 5 1 6 7
M  V30 6 1 6 8
M  V30 7 1 6 9
M  V30 8 1 6 10
M  V30 9 1 11 12
M  V30 10 1 11 13
M  V30 11 1 11 14
M  V30 12 1 11 15
M  V30 13 1 16 17
M  V30 14 1 16 18
M  V30 15 1 16 19
M  V30 16 1 16 20
M  V30 17 1 21 22
M  V30 18 1 21 23
M  V30 19 1 21 24
M  V30 20 1 21 25
M  V30 21 1 26 27
M  V30 22 1 26 28
M  V30 23 1 26 29
M  V30 24 1 26 30
M  V30 25 1 31 32
M  V30 26 1 31 33
M  V30 27 1 31 34
M  V30 28 1 31 35
M  V30 29 1 36 37
M  V30 30 1 36 38
M  V30 31 1 36 39
M  V30 32 1 36 40
M  V30 33 1 41 42
M  V30 34 1 41 43
M  V30 35 1 41 44
M  V30 36 1 41 45
M  V30 37 1 46 47
M  V30 38 1 47 48
M  V30 39 1 49 50
M  V30 40 1 50 51
M  V30 41 1 52 53
M  V30 42 1 53 54
M  V30 43 1 55 56
M  V30 44 1 56 57
M  V30 45 1 58 59
M  V30 46 1 59 60
M  V30 47 1 61 62
M  V30 48 1 62 63
M  V30 49 1 64 65
M  V30 50 1 65 66
M  V30 51 1 67 68
M  V30 52 1 68 69
M  V30 53 1 70 71
M  V30 54 1 71 72
M  V30 55 1 73 74
M  V30 56 1 74 75
M  V30 57 1 76 77
M  V30 58 1 77 78
M  V30 59 1 79 80
M  V30 60 1 80 81
M  V30 61 1 82 83
M  V30 62 1 83 84
M  V30 63 1 85 86
M  V30 64 1 86 87
M  V30 65 1 88 89
M  V30 66 1 89 90
M  V30 67 1 91 92
M  V30 68 1 92 93
M  V30 69 1 94 95
M  V30 70 1 95 96
M  V30 71 1 97 98
M  V30 72 1 98 99
M  V30 73 1 2 67
M  V30 74 1 3 73
M  V30 75 1 4 49
M  V30 76 1 5 97
M  V30 77 1 7 58
M  V30 78 1 8 88
M  V30 79 1 9 91
M  V30 80 1 10 79
M  V30 81 1 12 46
M  V30 82 1 13 85
M  V30 83 1 14 60
M  V30 84 1 15 55
M  V30 85 1 17 52
M  V30 86 1 18 87
M  V30 87 1 19 82
M  V30 88 1 20 61
M  V30 89 1 22 76
M  V30 90 1 23 90
M  V30 91 1 24 64
M  V30 92 1 25 63
M  V30 93 1 27 54
M  V30 94 1 28 48
M  V30 95 1 29 93
M  V30 96 1 30 94
M  V30 97 1 32 51
M  V30 98 1 33 70
M  V30 99 1 34 57
M  V30 100 1 35 99
M  V30 101 1 37 81
M  V30 102 1 38 84
M  V30 103 1 39 78
M  V30 104 1 40 72
M  V30 105 1 42 96
M  V30 106 1 43 66
M  V30 107 1 44 69
M  V30 108 1 45 75
M  V30 END BOND
M  V30 END CTAB
M  END

$$$$
