
     RDKit          3D

  0  0  0  0  0  0  0  0  0  0999 V3000
M  V30 BEGIN CTAB
M  V30 COUNTS 99 108 0 0 0
M  V30 BEGIN ATOM
M  V30 1 Pd 0.4089 8.8914 -2.9299 0
M  V30 2 Pb 0.2940 8.6936 -3.9092 0
M  V30 3 Pb 1.1779 8.2582 -2.8441 0
M  V30 4 Pb -0.3929 9.4799 -3.0012 0
M  V30 5 Pb 0.2832 8.9043 -1.9364 0
M  V30 6 Pd -1.4143 -4.8661 -0.8633 0
M  V30 7 Pb -0.5922 -4.9789 -0.2724 0
M  V30 8 Pb -1.8939 -4.3684 -1.5862 0
M  V30 9 Pb -1.7392 -4.1959 -0.2043 0
M  V30 10 Pb -1.4443 -5.6061 -0.1908 0
M  V30 11 Pd 4.8773 -7.4443 2.5763 0
M  V30 12 Pb 5.1207 -6.7481 1.8982 0
M  V30 13 Pb 4.4196 -8.1728 3.0943 0
M  V30 14 Pb 4.5107 -6.7512 3.1954 0
M  V30 15 Pb 5.1438 -8.1445 1.9147 0
M  V30 16 Pd -4.8667 1.5504 -1.9633 0
M  V30 17 Pb -4.8650 2.3390 -1.3235 0
M  V30 18 Pb -5.2148 0.9790 -1.2279 0
M  V30 19 Pb -4.7536 0.7298 -2.5204 0
M  V30 20 Pb -4.5114 2.0993 -2.7211 0
M  V30 21 Pd -3.6825 6.8412 -4.0129 0
M  V30 22 Pb -3.0794 7.0273 -4.7968 0
M  V30 23 Pb -3.6670 7.8222 -3.8296 0
M  V30 24 Pb -4.0319 6.7099 -3.0839 0
M  V30 25 Pb -3.6725 5.8604 -4.2082 0
M  V30 26 Pd 2.6465 3.3939 1.5052 0
M  V30 27 Pb 2.0206 4.1618 1.6212 0
M  V30 28 Pb 3.2763 2.6294 1.3611 0
M  V30 29 Pb 2.2623 2.9818 2.3345 0
M  V30 30 Pb 2.9852 3.8400 0.6779 0
M  V30 31 Pd 3.2967 -2.3353 1.8963 0
M  V30 32 Pb 2.4699 -1.8799 2.2092 0
M  V30 33 Pb 2.7306 -3.1598 1.6975 0
M  V30 34 Pb 3.2123 -3.0120 2.6279 0
M  V30 35 Pb 3.7012 -1.4700 1.5951 0
M  V30 36 Pd 1.3957 -9.4324 0.2735 0
M  V30 37 Pb 2.3122 -9.7560 0.0397 0
M  V30 38 Pb 1.5431 -9.8179 1.1891 0
M  V30 39 Pb 0.5259 -9.0367 0.5653 0
M  V30 40 Pb 1.4166 -8.8595 -0.5481 0
M  V30 41 Pd -2.2831 3.3418 2.8920 0
M  V30 42 Pb -1.7433 4.1346 2.6214 0
M  V30 43 Pb -3.0097 3.5950 2.2270 0
M  V30 44 Pb -1.5118 3.0294 3.4504 0
M  V30 45 Pb -2.8259 2.5589 3.1765 0
M  V30 46 Ag 5.0721 -6.3693 1.2564 0
M  V30 47 Fe 3.4556 -6.9093 -0.3808 0
M  V30 48 Ag 1.6582 -8.3142 -0.9975 0
M  V30 49 Ag -2.2836 -3.9809 -2.0967 0
M  V30 50 Fe -3.4657 -1.9816 -2.5888 0
M  V30 51 Ag -4.5939 0.0881 -2.8706 0
M  V30 52 Ag -0.0686 8.7739 -1.2898 0
M  V30 53 Fe -2.1900 7.7307 -1.1918 0
M  V30 54 Ag -4.0167 6.7580 -2.3383 0
M  V30 55 Ag 1.7284 7.7594 -2.7429 0
M  V30 56 Fe 2.5404 5.9787 -1.3987 0
M  V30 57 Ag 3.1818 4.2227 0.0648 0
M  V30 58 Ag -5.3773 0.6186 -0.6019 0
M  V30 59 Fe -4.5875 0.9143 1.5957 0
M  V30 60 Ag -3.2843 1.9815 3.2396 0
M  V30 61 Ag -1.8375 -3.6607 0.2991 0
M  V30 62 Fe -0.3170 -2.3812 1.5684 0
M  V30 63 Ag 1.7808 -1.6540 2.3621 0
M  V30 64 Ba 3.9920 -8.7339 3.3661 0
M  V30 65 Ga 2.8615 -9.4246 2.6938 0
M  V30 66 Ba 1.7602 -10.0108 1.8872 0
M  V30 67 Ba 0.0679 8.4940 -4.6050 0
M  V30 68 Ga -1.2127 7.8543 -5.0164 0
M  V30 69 Ba -2.5312 7.2160 -5.2864 0
M  V30 70 Ba 1.5360 4.7263 1.6922 0
M  V30 71 Ga 0.1126 4.7640 2.0580 0
M  V30 72 Ba -1.3078 4.7108 2.4335 0
M  V30 73 Ba 1.9311 2.7209 2.9582 0
M  V30 74 Ga 0.5246 2.7319 3.4159 0
M  V30 75 Ba -0.9006 2.7765 3.8090 0
M  V30 76 Ba -1.0377 9.8519 -3.0593 0
M  V30 77 Ga -2.3596 9.2902 -3.3716 0
M  V30 78 Ba -3.5896 8.5536 -3.6954 0
M  V30 79 Ba 3.7694 2.0824 1.2145 0
M  V30 80 Ga 3.8651 0.6124 1.3166 0
M  V30 81 Ba 4.0635 -0.8496 1.3746 0
M  V30 82 Ba -1.5179 -6.1823 0.2846 0
M  V30 83 Ga -0.8024 -7.4448 0.5482 0
M  V30 84 Ba -0.0974 -8.7107 0.8235 0
M  V30 85 Ba 0.0164 -5.0870 0.1837 0
M  V30 86 Ga 1.1539 -4.3675 0.8389 0
M  V30 87 Ba 2.3384 -3.8073 1.5628 0
M  V30 88 Ba -4.2403 2.4525 -3.3258 0
M  V30 89 Ga -3.9599 3.8179 -3.8101 0
M  V30 90 Ba -3.6410 5.1346 -4.3953 0
M  V30 91 Ba 5.2468 -8.6777 1.3984 0
M  V30 92 Ga 4.2061 -9.3657 0.6137 0
M  V30 93 Ba 3.0313 -9.9369 -0.0688 0
M  V30 94 Ba 4.1823 -6.2418 3.6358 0
M  V30 95 Ga 3.6888 -4.8684 3.4236 0
M  V30 96 Ba 3.1982 -3.4957 3.2015 0
M  V30 97 Ba -4.8633 2.9144 -0.8179 0
M  V30 98 Ga -4.1722 3.3104 0.4483 0
M  V30 99 Ba -3.5433 3.7982 1.7148 0
M  V30 END ATOM
M  V30 BEGIN BOND
M  V30 1 1 1 2
M  V30 2 1 1 3
M  V30 3 1 1 4
M  V30 4 1 1 5
M  V30 5 1 6 7
M  V30 6 1 6 8
M  V30 7 1 6 9
M  V30 8 1 6 10
M  V30 9 1 11 12
M  V30 10 1 11 13
M  V30 11 1 11 14
M  V30 12 1 11 15
M  V30 13 1 16 17
M  V30 14 1 16 18
M  V30 15 1 16 19
M  V30 16 1 16 20
M  V30 17 1 21 22
M  V30 18 1 21 23
M  V30 19 1 21 24
M  V30 20 1 21 25
M  V30 21 1 26 27
M  V30 22 1 26 28
M  V30 23 1 26 29
M  V30 24 1 26 30
M  V30 25 1 31 32
M  V30 26 1 31 33
M  V30 27 1 31 34
M  V30 28 1 31 35
M  V30 29 1 36 37
M  V30 30 1 36 38
M  V30 31 1 36 39
M  V30 32 1 36 40
M  V30 33 1 41 42
M  V30 34 1 41 43
M  V30 35 1 41 44
M  V30 36 1 41 45
M  V30 37 1 46 47
M  V30 38 1 47 48
M  V30 39 1 49 50
M  V30 40 1 50 51
M  V30 41 1 52 53
M  V30 42 1 53 54
M  V30 43 1 55 56
M  V30 44 1 56 57
M  V30 45 1 58 59
M  V30 46 1 59 60
M  V30 47 1 61 62
M  V30 48 1 62 63
M  V30 49 1 64 65
M  V30 50 1 65 66
M  V30 51 1 67 68
M  V30 52 1 68 69
M  V30 53 1 70 71
M  V30 54 1 71 72
M  V30 55 1 73 74
M  V30 56 1 74 75
M  V30 57 1 76 77
M  V30 58 1 77 78
M  V30 59 1 79 80
M  V30 60 1 80 81
M  V30 61 1 82 83
M  V30 62 1 83 84
M  V30 63 1 85 86
M  V30 64 1 86 87
M  V30 65 1 88 89
M  V30 66 1 89 90
M  V30 67 1 91 92
M  V30 68 1 92 93
M  V30 69 1 94 95
M  V30 70 1 95 96
M  V30 71 1 97 98
M  V30 72 1 98 99
M  V30 73 1 2 67
M  V30 74 1 3 55
M  V30 75 1 4 76
M  V30 76 1 5 52
M  V30 77 1 7 85
M  V30 78 1 8 49
M  V30 79 1 9 61
M  V30 80 1 10 82
M  V30 81 1 12 46
M  V30 82 1 13 64
M  V30 83 1 14 94
M  V30 84 1 15 91
M  V30 85 1 17 97
M  V30 86 1 18 58
M  V30 87 1 19 51
M  V30 88 1 20 88
M  V30 89 1 22 69
M  V30 90 1 23 78
M  V30 91 1 24 54
M  V30 92 1 25 90
M  V30 93 1 27 70
M  V30 94 1 28 79
M  V30 95 1 29 73
M  V30 96 1 30 57
M  V30 97 1 32 63
M  V30 98 1 33 87
M  V30 99 1 34 96
M  V30 100 1 35 81
M  V30 101 1 37 93
M  V30 102 1 38 66
M  V30 103 1 39 84
M  V30 104 1 40 48
M  V30 105 1 42 72
M  V30 106 1 43 99
M  V30 107 1 44 75
M  V30 108 1 45 60
M  V30 END BOND
M  V30 END CTAB
M  END

$$$$
