
     RDKit          3D

  0  0  0  0  0  0  0  0  0  0999 V3000
M  V30 BEGIN CTAB
M  V30 COUNTS 99 108 0 0 0
M  V30 BEGIN ATOM
M  V30 1 Pd -2.5257 -3.9823 3.8887 0
M  V30 2 Pb -1.7088 -4.0995 4.4434 0
M  V30 3 Pb -3.3317 -3.8800 3.3025 0
M  V30 4 Pb -2.9311 -4.8194 4.2509 0
M  V30 5 Pb -2.0222 -3.2089 3.4929 0
M  V30 6 Pd -4.0977 -7.5212 0.9018 0
M  V30 7 Pb -3.4081 -8.2344 0.7598 0
M  V30 8 Pb -4.0591 -7.6258 1.8947 0
M  V30 9 Pb -4.6584 -6.7045 1.0374 0
M  V30 10 Pb -4.1397 -7.4028 -0.0870 0
M  V30 11 Pd 1.9170 3.8485 2.7929 0
M  V30 12 Pb 2.8521 4.1549 2.6041 0
M  V30 13 Pb 0.9784 3.5369 2.9688 0
M  V30 14 Pb 1.5239 4.6907 2.4162 0
M  V30 15 Pb 2.3324 3.0486 3.2333 0
M  V30 16 Pd -0.4091 8.2261 -3.0205 0
M  V30 17 Pb -0.3668 8.0609 -4.0030 0
M  V30 18 Pb 0.5838 8.1831 -2.9755 0
M  V30 19 Pb -1.4034 8.1434 -3.0730 0
M  V30 20 Pb -0.4204 8.2529 -2.0220 0
M  V30 21 Pd 4.0602 -1.5900 2.3458 0
M  V30 22 Pb 4.5681 -1.1505 1.6043 0
M  V30 23 Pb 4.0646 -2.4479 1.8278 0
M  V30 24 Pb 4.0041 -0.7484 2.8871 0
M  V30 25 Pb 3.5911 -2.0633 3.0875 0
M  V30 26 Pd -0.1308 -6.5317 -1.7509 0
M  V30 27 Pb -0.2381 -7.4227 -1.3027 0
M  V30 28 Pb -0.1104 -5.6086 -2.1290 0
M  V30 29 Pb -1.0294 -6.6626 -2.1625 0
M  V30 30 Pb 0.7644 -6.3721 -1.3303 0
M  V30 31 Pd 4.6899 2.9546 -1.2880 0
M  V30 32 Pb 4.9943 2.0443 -1.0068 0
M  V30 33 Pb 4.1668 2.5657 -2.0486 0
M  V30 34 Pb 5.0908 3.3650 -0.4717 0
M  V30 35 Pb 4.4691 3.8777 -1.5959 0
M  V30 36 Pd -1.6239 0.5886 0.3614 0
M  V30 37 Pb -2.1983 1.1286 -0.2544 0
M  V30 38 Pb -1.7462 1.2318 1.1187 0
M  V30 39 Pb -1.1377 -0.0022 1.0013 0
M  V30 40 Pb -1.4149 -0.0353 -0.3911 0
M  V30 41 Pd -1.9711 4.0422 -4.3432 0
M  V30 42 Pb -2.6497 4.7634 -4.1995 0
M  V30 43 Pb -1.5294 4.6325 -5.0186 0
M  V30 44 Pb -1.2220 3.3818 -4.4247 0
M  V30 45 Pb -2.4435 3.4936 -3.6526 0
M  V30 46 Ag 1.2015 5.3281 2.1780 0
M  V30 47 Fe 0.4059 6.7834 0.4757 0
M  V30 48 Ag -0.3653 8.1907 -1.2773 0
M  V30 49 Ag 3.7026 2.3008 -2.5775 0
M  V30 50 Fe 1.5617 2.5458 -3.5821 0
M  V30 51 Ag -0.6108 2.9449 -4.4617 0
M  V30 52 Ag 4.0366 -3.1024 1.4582 0
M  V30 53 Fe 2.7621 -4.6765 0.2131 0
M  V30 54 Ag 1.4325 -6.2085 -1.0267 0
M  V30 55 Ag -0.1553 -4.8988 -2.3602 0
M  V30 56 Fe -0.6727 -2.6753 -1.7103 0
M  V30 57 Ag -1.2136 -0.4928 -0.9498 0
M  V30 58 Ag -1.0399 -4.1078 4.7685 0
M  V30 59 Fe 1.1566 -3.3307 4.3421 0
M  V30 60 Ag 3.2283 -2.4316 3.6264 0
M  V30 61 Ag 1.3152 8.0529 -2.9231 0
M  V30 62 Fe 2.8848 6.3606 -2.3820 0
M  V30 63 Ag 4.3472 4.5819 -1.8171 0
M  V30 64 Ba -2.6845 1.4748 -0.7093 0
M  V30 65 Ga -2.7029 2.3085 -1.9269 0
M  V30 66 Ba -2.8580 3.1414 -3.1352 0
M  V30 67 Ba -4.1180 -7.3174 -0.8282 0
M  V30 68 Ga -2.9637 -7.0373 -1.6927 0
M  V30 69 Ba -1.7218 -6.7563 -2.4255 0
M  V30 70 Ba -3.9509 -3.8765 2.8756 0
M  V30 71 Ga -4.5240 -4.9218 2.0037 0
M  V30 72 Ba -4.9901 -6.0436 1.1638 0
M  V30 73 Ba -2.1301 7.9838 -3.1612 0
M  V30 74 Ga -2.7039 6.6992 -3.6030 0
M  V30 75 Ba -3.0943 5.3502 -4.0534 0
M  V30 76 Ba -3.2084 -5.4831 4.4560 0
M  V30 77 Ga -3.6443 -6.6045 3.6071 0
M  V30 78 Ba -4.0472 -7.6426 2.6434 0
M  V30 79 Ba -1.5076 -2.7060 3.2635 0
M  V30 80 Ga -1.2234 -1.5730 2.3594 0
M  V30 81 Ba -0.8062 -0.4371 1.5112 0
M  V30 82 Ba -2.8319 -8.6969 0.6154 0
M  V30 83 Ga -1.5949 -8.4433 -0.1570 0
M  V30 84 Ba -0.4034 -8.0686 -0.9516 0
M  V30 85 Ba 3.5703 4.3308 2.4673 0
M  V30 86 Ga 4.4754 4.0451 1.3378 0
M  V30 87 Ba 5.2965 3.7118 0.1585 0
M  V30 88 Ba 4.9802 -0.8905 1.0335 0
M  V30 89 Ga 5.0766 0.2739 0.1325 0
M  V30 90 Ba 5.2810 1.3744 -0.8287 0
M  V30 91 Ba 2.7137 2.5156 3.6049 0
M  V30 92 Ga 3.2966 1.1700 3.4148 0
M  V30 93 Ba 3.9263 -0.1668 3.3583 0
M  V30 94 Ba -0.3420 7.8251 -4.7115 0
M  V30 95 Ga -0.7586 6.4987 -5.1951 0
M  V30 96 Ba -1.2260 5.1334 -5.4866 0
M  V30 97 Ba 0.2546 3.3540 3.0800 0
M  V30 98 Ga -0.7615 2.5216 2.3989 0
M  V30 99 Ba -1.7745 1.6868 1.7162 0
M  V30 END ATOM
M  V30 BEGIN BOND
M  V30 1 1 1 2
M  V30 2 1 1 3
M  V30 3 1 1 4
M  V30 4 1 1 5
M  V30 5 1 6 7
M  V30 6 1 6 8
M  V30 7 1 6 9
M  V30 8 1 6 10
M  V30 9 1 11 12
M  V30 10 1 11 13
M  V30 11 1 11 14
M  V30 12 1 11 15
M  V30 13 1 16 17
M  V30 14 1 16 18
M  V30 15 1 16 19
M  V30 16 1 16 20
M  V30 17 1 21 22
M  V30 18 1 21 23
M  V30 19 1 21 24
M  V30 20 1 21 25
M  V30 21 1 26 27
M  V30 22 1 26 28
M  V30 23 1 26 29
M  V30 24 1 26 30
M  V30 25 1 31 32
M  V30 26 1 31 33
M  V30 27 1 31 34
M  V30 28 1 31 35
M  V30 29 1 36 37
M  V30 30 1 36 38
M  V30 31 1 36 39
M  V30 32 1 36 40
M  V30 33 1 41 42
M  V30 34 1 41 43
M  V30 35 1 41 44
M  V30 36 1 41 45
M  V30 37 1 46 47
M  V30 38 1 47 48
M  V30 39 1 49 50
M  V30 40 1 50 51
M  V30 41 1 52 53
M  V30 42 1 53 54
M  V30 43 1 55 56
M  V30 44 1 56 57
M  V30 45 1 58 59
M  V30 46 1 59 60
M  V30 47 1 61 62
M  V30 48 1 62 63
M  V30 49 1 64 65
M  V30 50 1 65 66
M  V30 51 1 67 68
M  V30 52 1 68 69
M  V30 53 1 70 71
M  V30 54 1 71 72
M  V30 55 1 73 74
M  V30 56 1 74 75
M  V30 57 1 76 77
M  V30 58 1 77 78
M  V30 59 1 79 80
M  V30 60 1 80 81
M  V30 61 1 82 83
M  V30 62 1 83 84
M  V30 63 1 85 86
M  V30 64 1 86 87
M  V30 65 1 88 89
M  V30 66 1 89 90
M  V30 67 1 91 92
M  V30 68 1 92 93
M  V30 69 1 94 95
M  V30 70 1 95 96
M  V30 71 1 97 98
M  V30 72 1 98 99
M  V30 73 1 2 58
M  V30 74 1 3 70
M  V30 75 1 4 76
M  V30 76 1 5 79
M  V30 77 1 7 82
M  V30 78 1 8 78
M  V30 79 1 9 72
M  V30 80 1 10 67
M  V30 81 1 12 85
M  V30 82 1 13 97
M  V30 83 1 14 46
M  V30 84 1 15 91
M  V30 85 1 17 94
M  V30 86 1 18 61
M  V30 87 1 19 73
M  V30 88 1 20 48
M  V30 89 1 22 88
M  V30 90 1 23 52
M  V30 91 1 24 93
M  V30 92 1 25 60
M  V30 93 1 27 84
M  V30 94 1 28 55
M  V30 95 1 29 69
M  V30 96 1 30 54
M  V30 97 1 32 90
M  V30 98 1 33 49
M  V30 99 1 34 87
M  V30 100 1 35 63
M  V30 101 1 37 64
M  V30 102 1 38 99
M  V30 103 1 39 81
M  V30 104 1 40 57
M  V30 105 1 42 75
M  V30 106 1 43 96
M  V30 107 1 44 51
M  V30 108 1 45 66
M  V30 END BOND
M  V30 END CTAB
M  END

$$$$
