
     RDKit          3D

  0  0  0  0  0  0  0  0  0  0999 V3000
M  V30 BEGIN CTAB
M  V30 COUNTS 99 108 0 0 0
M  V30 BEGIN ATOM
M  V30 1 Pd 1.9437 -4.3898 -4.6646 0
M  V30 2 Pb 2.8756 -4.5618 -4.3420 0
M  V30 3 Pb 1.6631 -5.3021 -4.3655 0
M  V30 4 Pb 2.1934 -3.4688 -4.9598 0
M  V30 5 Pb 1.0009 -4.1573 -4.9089 0
M  V30 6 Pd -1.7177 1.8782 -5.5665 0
M  V30 7 Pb -2.6482 2.1866 -5.3524 0
M  V30 8 Pb -0.7812 1.5691 -5.7276 0
M  V30 9 Pb -1.9784 0.9115 -5.5518 0
M  V30 10 Pb -1.4251 2.8310 -5.5923 0
M  V30 11 Pd 6.0677 1.4844 3.0352 0
M  V30 12 Pb 6.3412 2.0537 2.2681 0
M  V30 13 Pb 5.5606 2.2721 3.4298 0
M  V30 14 Pb 6.5265 0.6764 2.6178 0
M  V30 15 Pb 5.8422 0.9406 3.8343 0
M  V30 16 Pd -3.2965 5.9816 -2.7178 0
M  V30 17 Pb -2.7013 6.6259 -2.2431 0
M  V30 18 Pb -3.9623 6.0905 -1.9781 0
M  V30 19 Pb -3.8549 5.2930 -3.1863 0
M  V30 20 Pb -2.6208 5.9061 -3.4479 0
M  V30 21 Pd -0.7624 -7.8001 1.2335 0
M  V30 22 Pb 0.1983 -7.9129 1.4832 0
M  V30 23 Pb -0.9685 -7.3170 2.0849 0
M  V30 24 Pb -0.5423 -8.1399 0.3217 0
M  V30 25 Pb -1.7181 -7.6588 0.9812 0
M  V30 26 Pd 2.2538 6.1038 2.3717 0
M  V30 27 Pb 1.6958 6.6839 1.7816 0
M  V30 28 Pb 2.8302 5.5123 2.9645 0
M  V30 29 Pb 1.4379 5.9057 2.9174 0
M  V30 30 Pb 3.0368 6.2533 1.7786 0
M  V30 31 Pd -5.0422 3.5487 2.0742 0
M  V30 32 Pb -5.8289 3.2013 1.5798 0
M  V30 33 Pb -4.9879 2.6763 2.6003 0
M  V30 34 Pb -4.2583 3.9108 2.5848 0
M  V30 35 Pb -5.1350 4.3985 1.5535 0
M  V30 36 Pd -5.4884 -2.4987 2.5387 0
M  V30 37 Pb -5.3362 -1.5837 2.9608 0
M  V30 38 Pb -6.2339 -2.1287 1.9988 0
M  V30 39 Pb -5.5799 -3.3806 2.0802 0
M  V30 40 Pb -4.7469 -2.9128 3.0697 0
M  V30 41 Pd 6.0539 -4.3892 1.6907 0
M  V30 42 Pb 5.5731 -5.2614 1.7650 0
M  V30 43 Pb 6.1131 -4.5054 0.6976 0
M  V30 44 Pb 5.9509 -4.2755 2.6714 0
M  V30 45 Pb 6.5093 -3.4797 1.6389 0
M  V30 46 Ag -1.1720 -6.8661 2.6495 0
M  V30 47 Fe -2.6421 -5.0728 3.1703 0
M  V30 48 Ag -4.2069 -3.3014 3.4198 0
M  V30 49 Ag -2.4350 -7.4921 0.8464 0
M  V30 50 Fe -4.1041 -5.8475 1.2187 0
M  V30 51 Ag -5.5576 -4.0462 1.7395 0
M  V30 52 Ag 0.9281 -7.9871 1.6341 0
M  V30 53 Fe 3.0743 -6.9801 1.7526 0
M  V30 54 Ag 5.1838 -5.8959 1.8462 0
M  V30 55 Ag 0.8004 5.7477 3.2825 0
M  V30 56 Fe -1.4401 4.9632 3.1469 0
M  V30 57 Ag -3.6777 4.1756 2.9849 0
M  V30 58 Ag 5.7211 0.4370 4.3619 0
M  V30 59 Fe 5.6972 -1.9167 4.3358 0
M  V30 60 Ag 5.8460 -4.0581 3.3700 0
M  V30 61 Ag 0.3101 -3.9007 -5.0561 0
M  V30 62 Fe -0.9910 -1.9300 -5.3261 0
M  V30 63 Ag -2.0848 0.1677 -5.5566 0
M  V30 64 Ag -2.2326 7.0694 -1.8664 0
M  V30 65 Fe -0.4796 7.1602 -0.2711 0
M  V30 66 Ag 1.2650 7.1011 1.3348 0
M  V30 67 Ag 2.3005 -2.7629 -5.1856 0
M  V30 68 Fe 1.2101 -0.6845 -5.5389 0
M  V30 69 Ag -0.0951 1.2796 -5.8088 0
M  V30 70 Ag 6.4630 2.5760 1.7574 0
M  V30 71 Fe 5.3287 4.5690 1.2151 0
M  V30 72 Ag 3.6460 6.2120 1.3604 0
M  V30 73 Ag 1.4372 -5.9739 -4.1199 0
M  V30 74 Fe 0.5491 -7.2356 -2.3160 0
M  V30 75 Ag -0.3375 -8.2878 -0.3820 0
M  V30 76 Ag -6.3817 2.8361 1.2527 0
M  V30 77 Fe -6.9561 0.5557 1.1643 0
M  V30 78 Ag -6.7335 -1.7434 1.6147 0
M  V30 79 Ag 3.5606 -4.6609 -4.0502 0
M  V30 80 Fe 4.8911 -4.6480 -2.0808 0
M  V30 81 Ag 6.1208 -4.6059 -0.0474 0
M  V30 82 Ba 5.1812 2.8431 3.7714 0
M  V30 83 Ga 4.2176 3.9563 3.5179 0
M  V30 84 Ba 3.2662 5.1061 3.4458 0
M  V30 85 Ba -3.3316 2.4456 -5.1690 0
M  V30 86 Ga -3.8035 3.5955 -4.3660 0
M  V30 87 Ba -4.2333 4.7567 -3.5554 0
M  V30 88 Ba -4.9515 2.0533 3.0501 0
M  V30 89 Ga -5.0962 0.5633 3.0823 0
M  V30 90 Ba -5.1978 -0.9131 3.3099 0
M  V30 91 Ba -4.4333 6.2290 -1.4092 0
M  V30 92 Ga -4.8271 5.5983 -0.1335 0
M  V30 93 Ba -5.2632 5.0213 1.1539 0
M  V30 94 Ba -1.2179 3.5486 -5.5993 0
M  V30 95 Ga -1.6479 4.7137 -4.8113 0
M  V30 96 Ba -2.1148 5.8445 -3.9947 0
M  V30 97 Ba 6.8981 0.0946 2.2811 0
M  V30 98 Ga 6.8112 -1.3683 1.9780 0
M  V30 99 Ba 6.8859 -2.8122 1.5921 0
M  V30 END ATOM
M  V30 BEGIN BOND
M  V30 1 1 1 2
M  V30 2 1 1 3
M  V30 3 1 1 4
M  V30 4 1 1 5
M  V30 5 1 6 7
M  V30 6 1 6 8
M  V30 7 1 6 9
M  V30 8 1 6 10
M  V30 9 1 11 12
M  V30 10 1 11 13
M  V30 11 1 11 14
M  V30 12 1 11 15
M  V30 13 1 16 17
M  V30 14 1 16 18
M  V30 15 1 16 19
M  V30 16 1 16 20
M  V30 17 1 21 22
M  V30 18 1 21 23
M  V30 19 1 21 24
M  V30 20 1 21 25
M  V30 21 1 26 27
M  V30 22 1 26 28
M  V30 23 1 26 29
M  V30 24 1 26 30
M  V30 25 1 31 32
M  V30 26 1 31 33
M  V30 27 1 31 34
M  V30 28 1 31 35
M  V30 29 1 36 37
M  V30 30 1 36 38
M  V30 31 1 36 39
M  V30 32 1 36 40
M  V30 33 1 41 42
M  V30 34 1 41 43
M  V30 35 1 41 44
M  V30 36 1 41 45
M  V30 37 1 46 47
M  V30 38 1 47 48
M  V30 39 1 49 50
M  V30 40 1 50 51
M  V30 41 1 52 53
M  V30 42 1 53 54
M  V30 43 1 55 56
M  V30 44 1 56 57
M  V30 45 1 58 59
M  V30 46 1 59 60
M  V30 47 1 61 62
M  V30 48 1 62 63
M  V30 49 1 64 65
M  V30 50 1 65 66
M  V30 51 1 67 68
M  V30 52 1 68 69
M  V30 53 1 70 71
M  V30 54 1 71 72
M  V30 55 1 73 74
M  V30 56 1 74 75
M  V30 57 1 76 77
M  V30 58 1 77 78
M  V30 59 1 79 80
M  V30 60 1 80 81
M  V30 61 1 82 83
M  V30 62 1 83 84
M  V30 63 1 85 86
M  V30 64 1 86 87
M  V30 65 1 88 89
M  V30 66 1 89 90
M  V30 67 1 91 92
M  V30 68 1 92 93
M  V30 69 1 94 95
M  V30 70 1 95 96
M  V30 71 1 97 98
M  V30 72 1 98 99
M  V30 73 1 2 79
M  V30 74 1 3 73
M  V30 75 1 4 67
M  V30 76 1 5 61
M  V30 77 1 7 85
M  V30 78 1 8 69
M  V30 79 1 9 63
M  V30 80 1 10 94
M  V30 81 1 12 70
M  V30 82 1 13 82
M  V30 83 1 14 97
M  V30 84 1 15 58
M  V30 85 1 17 64
M  V30 86 1 18 91
M  V30 87 1 19 87
M  V30 88 1 20 96
M  V30 89 1 22 52
M  V30 90 1 23 46
M  V30 91 1 24 75
M  V30 92 1 25 49
M  V30 93 1 27 66
M  V30 94 1 28 84
M  V30 95 1 29 55
M  V30 96 1 30 72
M  V30 97 1 32 76
M  V30 98 1 33 88
M  V30 99 1 34 57
M  V30 100 1 35 93
M  V30 101 1 37 90
M  V30 102 1 38 78
M  V30 103 1 39 51
M  V30 104 1 40 48
M  V30 105 1 42 54
M  V30 106 1 43 81
M  V30 107 1 44 60
M  V30 108 1 45 99
M  V30 END BOND
M  V30 END CTAB
M  END

$$$$
