
     RDKit          3D

  0  0  0  0  0  0  0  0  0  0999 V3000
M  V30 BEGIN CTAB
M  V30 COUNTS 99 108 0 0 0
M  V30 BEGIN ATOM
M  V30 1 Pd 4.7952 1.8162 1.7488 0
M  V30 2 Pb 4.2855 2.5291 2.2231 0
M  V30 3 Pb 5.3757 1.1307 1.3045 0
M  V30 4 Pb 4.6801 1.2104 2.5420 0
M  V30 5 Pb 4.8919 2.4429 0.9715 0
M  V30 6 Pd 0.0672 -3.7909 -3.8497 0
M  V30 7 Pb -0.1835 -3.3364 -2.9949 0
M  V30 8 Pb 0.5891 -4.4838 -3.3524 0
M  V30 9 Pb -0.2919 -3.0055 -4.3465 0
M  V30 10 Pb 0.4955 -4.1329 -4.6830 0
M  V30 11 Pd -6.4261 2.4490 0.0968 0
M  V30 12 Pb -5.8950 3.2846 0.2226 0
M  V30 13 Pb -6.3194 2.5191 -0.8977 0
M  V30 14 Pb -6.9046 1.5731 0.0374 0
M  V30 15 Pb -6.4401 2.3687 1.0946 0
M  V30 16 Pd -4.3950 -4.2671 1.4711 0
M  V30 17 Pb -5.3181 -3.9087 1.3418 0
M  V30 18 Pb -4.3771 -3.9818 2.4272 0
M  V30 19 Pb -4.3669 -4.3968 0.4839 0
M  V30 20 Pb -3.4192 -4.4728 1.5645 0
M  V30 21 Pd -2.4653 0.8291 -2.6299 0
M  V30 22 Pb -1.8129 0.2348 -2.1587 0
M  V30 23 Pb -3.2171 1.3756 -3.0019 0
M  V30 24 Pb -2.9173 -0.0153 -2.9091 0
M  V30 25 Pb -1.9829 1.6559 -2.3258 0
M  V30 26 Pd 0.8427 -0.8322 5.0664 0
M  V30 27 Pb -0.1116 -1.0794 5.2359 0
M  V30 28 Pb 0.7620 -0.0948 5.7407 0
M  V30 29 Pb 1.8185 -0.6374 4.9167 0
M  V30 30 Pb 0.8588 -1.5906 4.4114 0
M  V30 31 Pd -1.5865 3.9869 5.1468 0
M  V30 32 Pb -0.6839 4.3590 4.9570 0
M  V30 33 Pb -1.1708 3.4229 5.8623 0
M  V30 34 Pb -2.4906 3.5745 5.2562 0
M  V30 35 Pb -1.9739 4.5102 4.3888 0
M  V30 36 Pd 2.5110 2.8465 -3.2590 0
M  V30 37 Pb 1.7212 3.1747 -2.7371 0
M  V30 38 Pb 3.2929 2.4929 -3.7768 0
M  V30 39 Pb 1.8652 2.3851 -3.8659 0
M  V30 40 Pb 3.1622 3.2743 -2.6287 0
M  V30 41 Pd 6.5647 -3.1779 -3.8741 0
M  V30 42 Pb 6.2251 -3.9857 -3.3941 0
M  V30 43 Pb 6.9122 -2.7909 -3.0209 0
M  V30 44 Pb 6.7029 -2.2946 -4.3181 0
M  V30 45 Pb 6.1056 -3.5310 -4.6883 0
M  V30 46 Ag 3.9294 3.0759 2.5862 0
M  V30 47 Fe 1.9973 3.8871 3.6928 0
M  V30 48 Ag 0.0039 4.5760 4.7730 0
M  V30 49 Ag -4.3557 -4.3311 -0.2587 0
M  V30 50 Fe -3.8341 -2.6480 -1.8431 0
M  V30 51 Ag -3.1974 -0.6975 -3.0293 0
M  V30 52 Ag -4.2654 -3.6870 3.1055 0
M  V30 53 Fe -2.6240 -2.4979 4.3411 0
M  V30 54 Ag -0.8130 -1.3270 5.3337 0
M  V30 55 Ag -6.3673 2.3265 1.8409 0
M  V30 56 Fe -4.8762 2.7538 3.6401 0
M  V30 57 Ag -3.1825 3.2881 5.2178 0
M  V30 58 Ag 0.9721 -4.3178 -5.2273 0
M  V30 59 Fe 3.3230 -4.1717 -5.4990 0
M  V30 60 Ag 5.6472 -3.7953 -5.2176 0
M  V30 61 Ag 1.1109 -4.9216 -3.0393 0
M  V30 62 Fe 3.4803 -4.9624 -2.9003 0
M  V30 63 Ag 5.8054 -4.5182 -3.0762 0
M  V30 64 Ag -5.4603 3.8622 0.4142 0
M  V30 65 Fe -3.8562 4.5010 2.0420 0
M  V30 66 Ag -2.2951 4.8386 3.7971 0
M  V30 67 Ag -2.6753 -4.5147 1.6670 0
M  V30 68 Fe -0.8568 -3.4355 2.7546 0
M  V30 69 Ag 0.7702 -2.1753 3.9461 0
M  V30 70 Ag -7.2101 0.8895 0.0805 0
M  V30 71 Fe -6.7352 -1.3773 0.6039 0
M  V30 72 Ag -5.9499 -3.5453 1.1695 0
M  V30 73 Ag -0.4355 -2.3507 -4.6740 0
M  V30 74 Fe 0.3490 -0.1139 -4.5993 0
M  V30 75 Ag 1.3598 2.0061 -4.2681 0
M  V30 76 Ag 3.8942 2.2154 -4.1334 0
M  V30 77 Fe 5.3584 0.3713 -4.4498 0
M  V30 78 Ag 6.6755 -1.6003 -4.5970 0
M  V30 79 Ag 5.8469 0.6285 1.0020 0
M  V30 80 Fe 6.4904 -0.9223 -0.6794 0
M  V30 81 Ag 7.1100 -2.4682 -2.3741 0
M  V30 82 Ba -0.2744 -2.9303 -2.3699 0
M  V30 83 Ga -0.8459 -1.6021 -2.0688 0
M  V30 84 Ba -1.4180 -0.2733 -1.7711 0
M  V30 85 Ba -1.6191 2.2707 -2.0832 0
M  V30 86 Ga -0.2580 2.8332 -2.2264 0
M  V30 87 Ba 1.1030 3.3957 -2.3700 0
M  V30 88 Ba 4.6146 0.7691 3.1505 0
M  V30 89 Ga 3.5469 0.1376 3.9610 0
M  V30 90 Ba 2.5641 -0.5379 4.8402 0
M  V30 91 Ba 4.9503 2.9534 0.4207 0
M  V30 92 Ga 4.3019 3.2420 -0.8766 0
M  V30 93 Ba 3.6856 3.5743 -2.1791 0
M  V30 94 Ba 0.6477 0.4341 6.2640 0
M  V30 95 Ga -0.0765 1.7216 6.3190 0
M  V30 96 Ba -0.8013 3.0090 6.3695 0
M  V30 97 Ba -6.1780 2.5864 -1.6341 0
M  V30 98 Ga -5.0221 2.1857 -2.4644 0
M  V30 99 Ba -3.8298 1.7506 -3.2227 0
M  V30 END ATOM
M  V30 BEGIN BOND
M  V30 1 1 1 2
M  V30 2 1 1 3
M  V30 3 1 1 4
M  V30 4 1 1 5
M  V30 5 1 6 7
M  V30 6 1 6 8
M  V30 7 1 6 9
M  V30 8 1 6 10
M  V30 9 1 11 12
M  V30 10 1 11 13
M  V30 11 1 11 14
M  V30 12 1 11 15
M  V30 13 1 16 17
M  V30 14 1 16 18
M  V30 15 1 16 19
M  V30 16 1 16 20
M  V30 17 1 21 22
M  V30 18 1 21 23
M  V30 19 1 21 24
M  V30 20 1 21 25
M  V30 21 1 26 27
M  V30 22 1 26 28
M  V30 23 1 26 29
M  V30 24 1 26 30
M  V30 25 1 31 32
M  V30 26 1 31 33
M  V30 27 1 31 34
M  V30 28 1 31 35
M  V30 29 1 36 37
M  V30 30 1 36 38
M  V30 31 1 36 39
M  V30 32 1 36 40
M  V30 33 1 41 42
M  V30 34 1 41 43
M  V30 35 1 41 44
M  V30 36 1 41 45
M  V30 37 1 46 47
M  V30 38 1 47 48
M  V30 39 1 49 50
M  V30 40 1 50 51
M  V30 41 1 52 53
M  V30 42 1 53 54
M  V30 43 1 55 56
M  V30 44 1 56 57
M  V30 45 1 58 59
M  V30 46 1 59 60
M  V30 47 1 61 62
M  V30 48 1 62 63
M  V30 49 1 64 65
M  V30 50 1 65 66
M  V30 51 1 67 68
M  V30 52 1 68 69
M  V30 53 1 70 71
M  V30 54 1 71 72
M  V30 55 1 73 74
M  V30 56 1 74 75
M  V30 57 1 76 77
M  V30 58 1 77 78
M  V30 59 1 79 80
M  V30 60 1 80 81
M  V30 61 1 82 83
M  V30 62 1 83 84
M  V30 63 1 85 86
M  V30 64 1 86 87
M  V30 65 1 88 89
M  V30 66 1 89 90
M  V30 67 1 91 92
M  V30 68 1 92 93
M  V30 69 1 94 95
M  V30 70 1 95 96
M  V30 71 1 97 98
M  V30 72 1 98 99
M  V30 73 1 2 46
M  V30 74 1 3 79
M  V30 75 1 4 88
M  V30 76 1 5 91
M  V30 77 1 7 82
M  V30 78 1 8 61
M  V30 79 1 9 73
M  V30 80 1 10 58
M  V30 81 1 12 64
M  V30 82 1 13 97
M  V30 83 1 14 70
M  V30 84 1 15 55
M  V30 85 1 17 72
M  V30 86 1 18 52
M  V30 87 1 19 49
M  V30 88 1 20 67
M  V30 89 1 22 84
M  V30 90 1 23 99
M  V30 91 1 24 51
M  V30 92 1 25 85
M  V30 93 1 27 54
M  V30 94 1 28 94
M  V30 95 1 29 90
M  V30 96 1 30 69
M  V30 97 1 32 48
M  V30 98 1 33 96
M  V30 99 1 34 57
M  V30 100 1 35 66
M  V30 101 1 37 87
M  V30 102 1 38 76
M  V30 103 1 39 75
M  V30 104 1 40 93
M  V30 105 1 42 63
M  V30 106 1 43 81
M  V30 107 1 44 78
M  V30 108 1 45 60
M  V30 END BOND
M  V30 END CTAB
M  END

$$$$
