
     RDKit          3D

  0  0  0  0  0  0  0  0  0  0999 V3000
M  V30 BEGIN CTAB
M  V30 COUNTS 99 108 0 0 0
M  V30 BEGIN ATOM
M  V30 1 Pd 3.0766 -0.0301 4.4842 0
M  V30 2 Pb 3.7990 -0.2997 3.8479 0
M  V30 3 Pb 3.2374 0.9298 4.2612 0
M  V30 4 Pb 2.9702 -0.9891 4.7545 0
M  V30 5 Pb 2.3363 0.2543 5.0967 0
M  V30 6 Pd -0.7150 5.7139 -2.2291 0
M  V30 7 Pb -0.3414 4.7941 -2.3590 0
M  V30 8 Pb -1.0643 6.5992 -1.9285 0
M  V30 9 Pb -1.6020 5.3190 -2.0205 0
M  V30 10 Pb 0.1995 6.1099 -2.2620 0
M  V30 11 Pd -0.2433 -2.8083 -6.6803 0
M  V30 12 Pb 0.2225 -3.6707 -6.4777 0
M  V30 13 Pb -0.7182 -1.9309 -6.7338 0
M  V30 14 Pb -1.1381 -3.2509 -6.6837 0
M  V30 15 Pb 0.6388 -2.3610 -6.5389 0
M  V30 16 Pd -4.5861 -3.9339 -1.1895 0
M  V30 17 Pb -4.7334 -4.0675 -2.1686 0
M  V30 18 Pb -4.3450 -3.7887 -0.2300 0
M  V30 19 Pb -5.1557 -3.1135 -1.1810 0
M  V30 20 Pb -3.9313 -4.6869 -1.1949 0
M  V30 21 Pd -2.7811 0.8743 -1.3084 0
M  V30 22 Pb -1.8443 1.2029 -1.4434 0
M  V30 23 Pb -2.9161 1.0667 -2.2796 0
M  V30 24 Pb -3.7224 0.5407 -1.2265 0
M  V30 25 Pb -2.5957 0.5697 -0.3682 0
M  V30 26 Pd 1.5132 -5.1330 2.5494 0
M  V30 27 Pb 0.6236 -4.7404 2.7846 0
M  V30 28 Pb 2.3871 -5.5297 2.2637 0
M  V30 29 Pb 1.9304 -4.6945 3.3469 0
M  V30 30 Pb 1.0581 -5.5794 1.7807 0
M  V30 31 Pd 4.6526 -4.1904 -1.6643 0
M  V30 32 Pb 5.0646 -3.5482 -1.0194 0
M  V30 33 Pb 4.6782 -4.8862 -0.9442 0
M  V30 34 Pb 4.5967 -3.4909 -2.3774 0
M  V30 35 Pb 4.1924 -4.7995 -2.3126 0
M  V30 36 Pd -1.7565 2.5651 3.8786 0
M  V30 37 Pb -1.8337 1.6550 3.4750 0
M  V30 38 Pb -1.6580 3.5054 4.2163 0
M  V30 39 Pb -2.3460 2.8792 3.1396 0
M  V30 40 Pb -1.1837 2.2120 4.6233 0
M  V30 41 Pd 0.7817 6.9782 1.9894 0
M  V30 42 Pb 0.0762 7.5313 1.5434 0
M  V30 43 Pb 1.4931 6.4067 2.3926 0
M  V30 44 Pb 0.1929 6.7931 2.7817 0
M  V30 45 Pb 1.3572 7.1212 1.1814 0
M  V30 46 Ag 4.3233 -0.5050 3.3532 0
M  V30 47 Fe 4.8845 -1.7700 1.4241 0
M  V30 48 Ag 5.3368 -3.0731 -0.5083 0
M  V30 49 Ag -4.0744 -3.7056 0.4645 0
M  V30 50 Fe -2.1317 -4.0363 1.7904 0
M  V30 51 Ag -0.0687 -4.4691 2.8852 0
M  V30 52 Ag 1.3048 -2.0909 -6.3277 0
M  V30 53 Fe 2.9938 -2.4291 -4.6932 0
M  V30 54 Ag 4.4923 -3.0124 -2.9458 0
M  V30 55 Ag 0.6123 -4.2615 -6.2260 0
M  V30 56 Fe 2.2161 -4.8695 -4.5805 0
M  V30 57 Ag 3.8140 -5.1693 -2.8466 0
M  V30 58 Ag -3.3771 -5.1875 -1.1582 0
M  V30 59 Fe -1.3394 -5.6584 -0.0379 0
M  V30 60 Ag 0.6511 -5.8865 1.2328 0
M  V30 61 Ag -1.8240 -3.5310 -6.5790 0
M  V30 62 Fe -3.4087 -3.9191 -4.8558 0
M  V30 63 Ag -4.7440 -4.1703 -2.9102 0
M  V30 64 Ag -2.2060 5.0271 -1.7030 0
M  V30 65 Fe -2.7009 4.0162 0.3788 0
M  V30 66 Ag -2.7584 3.0699 2.5479 0
M  V30 67 Ag 3.3777 1.6528 4.1274 0
M  V30 68 Fe 2.6990 3.8068 3.3993 0
M  V30 69 Ag 2.0261 5.9628 2.6718 0
M  V30 70 Ag -1.1114 -1.2980 -6.6568 0
M  V30 71 Fe -2.0930 0.0519 -4.9690 0
M  V30 72 Ag -2.9220 1.1338 -3.0256 0
M  V30 73 Ba -0.0582 4.0976 -2.3618 0
M  V30 74 Ga -0.6007 2.7707 -2.0005 0
M  V30 75 Ba -1.1605 1.4521 -1.6350 0
M  V30 76 Ba -2.4609 0.2625 0.3090 0
M  V30 77 Ga -2.1833 0.6523 1.7079 0
M  V30 78 Ba -1.9036 1.0004 3.1175 0
M  V30 79 Ba -5.5220 -2.4606 -1.1598 0
M  V30 80 Ga -5.0095 -1.0768 -1.1699 0
M  V30 81 Ba -4.4259 0.2786 -1.1838 0
M  V30 82 Ba 0.8692 6.4219 -2.1507 0
M  V30 83 Ga 1.3947 6.8453 -0.8399 0
M  V30 84 Ba 1.7502 7.2044 0.5455 0
M  V30 85 Ba -1.2934 7.2237 -1.5856 0
M  V30 86 Ga -0.9121 7.6540 -0.2278 0
M  V30 87 Ba -0.4190 7.9225 1.1360 0
M  V30 88 Ba 2.9411 -1.7049 4.9835 0
M  V30 89 Ga 2.5654 -3.0270 4.4423 0
M  V30 90 Ba 2.2096 -4.3805 3.9697 0
M  V30 91 Ba 1.7836 0.4933 5.5473 0
M  V30 92 Ga 0.5059 1.2127 5.3544 0
M  V30 93 Ba -0.7763 1.9315 5.1918 0
M  V30 94 Ba -1.5864 4.2213 4.4419 0
M  V30 95 Ga -0.9096 5.4260 3.9092 0
M  V30 96 Ba -0.2354 6.6346 3.3821 0
M  V30 97 Ba 3.0230 -5.8397 2.0100 0
M  V30 98 Ga 3.8704 -5.6161 0.8206 0
M  V30 99 Ba 4.7045 -5.3768 -0.3751 0
M  V30 END ATOM
M  V30 BEGIN BOND
M  V30 1 1 1 2
M  V30 2 1 1 3
M  V30 3 1 1 4
M  V30 4 1 1 5
M  V30 5 1 6 7
M  V30 6 1 6 8
M  V30 7 1 6 9
M  V30 8 1 6 10
M  V30 9 1 11 12
M  V30 10 1 11 13
M  V30 11 1 11 14
M  V30 12 1 11 15
M  V30 13 1 16 17
M  V30 14 1 16 18
M  V30 15 1 16 19
M  V30 16 1 16 20
M  V30 17 1 21 22
M  V30 18 1 21 23
M  V30 19 1 21 24
M  V30 20 1 21 25
M  V30 21 1 26 27
M  V30 22 1 26 28
M  V30 23 1 26 29
M  V30 24 1 26 30
M  V30 25 1 31 32
M  V30 26 1 31 33
M  V30 27 1 31 34
M  V30 28 1 31 35
M  V30 29 1 36 37
M  V30 30 1 36 38
M  V30 31 1 36 39
M  V30 32 1 36 40
M  V30 33 1 41 42
M  V30 34 1 41 43
M  V30 35 1 41 44
M  V30 36 1 41 45
M  V30 37 1 46 47
M  V30 38 1 47 48
M  V30 39 1 49 50
M  V30 40 1 50 51
M  V30 41 1 52 53
M  V30 42 1 53 54
M  V30 43 1 55 56
M  V30 44 1 56 57
M  V30 45 1 58 59
M  V30 46 1 59 60
M  V30 47 1 61 62
M  V30 48 1 62 63
M  V30 49 1 64 65
M  V30 50 1 65 66
M  V30 51 1 67 68
M  V30 52 1 68 69
M  V30 53 1 70 71
M  V30 54 1 71 72
M  V30 55 1 73 74
M  V30 56 1 74 75
M  V30 57 1 76 77
M  V30 58 1 77 78
M  V30 59 1 79 80
M  V30 60 1 80 81
M  V30 61 1 82 83
M  V30 62 1 83 84
M  V30 63 1 85 86
M  V30 64 1 86 87
M  V30 65 1 88 89
M  V30 66 1 89 90
M  V30 67 1 91 92
M  V30 68 1 92 93
M  V30 69 1 94 95
M  V30 70 1 95 96
M  V30 71 1 97 98
M  V30 72 1 98 99
M  V30 73 1 2 46
M  V30 74 1 3 67
M  V30 75 1 4 88
M  V30 76 1 5 91
M  V30 77 1 7 73
M  V30 78 1 8 85
M  V30 79 1 9 64
M  V30 80 1 10 82
M  V30 81 1 12 55
M  V30 82 1 13 70
M  V30 83 1 14 61
M  V30 84 1 15 52
M  V30 85 1 17 63
M  V30 86 1 18 49
M  V30 87 1 19 79
M  V30 88 1 20 58
M  V30 89 1 22 75
M  V30 90 1 23 72
M  V30 91 1 24 81
M  V30 92 1 25 76
M  V30 93 1 27 51
M  V30 94 1 28 97
M  V30 95 1 29 90
M  V30 96 1 30 60
M  V30 97 1 32 48
M  V30 98 1 33 99
M  V30 99 1 34 54
M  V30 100 1 35 57
M  V30 101 1 37 78
M  V30 102 1 38 94
M  V30 103 1 39 66
M  V30 104 1 40 93
M  V30 105 1 42 87
M  V30 106 1 43 69
M  V30 107 1 44 96
M  V30 108 1 45 84
M  V30 END BOND
M  V30 END CTAB
M  END

$$$$
