
     RDKit          3D

  0  0  0  0  0  0  0  0  0  0999 V3000
M  V30 BEGIN CTAB
M  V30 COUNTS 99 108 0 0 0
M  V30 BEGIN ATOM
M  V30 1 Pd -0.2607 -2.6310 -5.1575 0
M  V30 2 Pb 0.7388 -2.6239 -5.2354 0
M  V30 3 Pb -1.2628 -2.6504 -5.1382 0
M  V30 4 Pb -0.3030 -1.7118 -5.5428 0
M  V30 5 Pb -0.2126 -3.5224 -4.7076 0
M  V30 6 Pd -6.4154 -0.0926 1.8320 0
M  V30 7 Pb -5.5619 0.4268 1.7848 0
M  V30 8 Pb -7.2458 -0.6451 1.8450 0
M  V30 9 Pb -6.0219 -0.6725 2.5440 0
M  V30 10 Pb -6.7783 0.3836 1.0290 0
M  V30 11 Pd 5.9390 0.2882 3.8087 0
M  V30 12 Pb 6.3876 0.6765 3.0078 0
M  V30 13 Pb 5.3925 -0.0303 4.5824 0
M  V30 14 Pb 6.1076 1.1297 4.3145 0
M  V30 15 Pb 5.6960 -0.4954 3.2318 0
M  V30 16 Pd 2.1433 5.9364 3.0914 0
M  V30 17 Pb 2.9123 5.8471 3.7190 0
M  V30 18 Pb 2.7649 6.1989 2.3548 0
M  V30 19 Pb 1.5450 5.5770 3.8096 0
M  V30 20 Pb 1.4132 5.9490 2.4065 0
M  V30 21 Pd 0.8197 0.8847 4.4292 0
M  V30 22 Pb 0.0981 1.1226 3.7782 0
M  V30 23 Pb 1.5323 0.6202 5.0820 0
M  V30 24 Pb 0.6916 1.7895 4.8448 0
M  V30 25 Pb 0.9391 -0.0202 4.0176 0
M  V30 26 Pd 2.3486 4.3013 -3.9300 0
M  V30 27 Pb 2.9826 4.7985 -3.3397 0
M  V30 28 Pb 3.0893 3.9109 -4.4789 0
M  V30 29 Pb 1.7056 3.7968 -4.5025 0
M  V30 30 Pb 1.6188 4.6313 -3.3275 0
M  V30 31 Pd 4.8029 -0.3083 -3.3649 0
M  V30 32 Pb 4.3279 -0.9488 -3.9731 0
M  V30 33 Pb 4.8597 0.3786 -4.0926 0
M  V30 34 Pb 4.7536 -0.9491 -2.5939 0
M  V30 35 Pb 5.3377 0.2837 -2.7664 0
M  V30 36 Pd -1.9056 -5.6723 1.3692 0
M  V30 37 Pb -1.0803 -5.2151 1.6983 0
M  V30 38 Pb -2.7510 -6.0455 0.9892 0
M  V30 39 Pb -2.4110 -5.2749 2.1346 0
M  V30 40 Pb -1.4292 -5.9755 0.5456 0
M  V30 41 Pd -7.5090 -2.6901 -2.0117 0
M  V30 42 Pb -8.1029 -2.7090 -1.2097 0
M  V30 43 Pb -6.8886 -2.6661 -2.7971 0
M  V30 44 Pb -7.2803 -3.6497 -1.8580 0
M  V30 45 Pb -7.6529 -1.7000 -2.0588 0
M  V30 46 Ag -4.9058 0.7879 1.7416 0
M  V30 47 Fe -2.6778 1.0626 2.5186 0
M  V30 48 Ag -0.4527 1.3222 3.3089 0
M  V30 49 Ag 1.0596 -0.7103 3.7459 0
M  V30 50 Fe 0.2982 -2.7692 2.8379 0
M  V30 51 Ag -0.4878 -4.8184 1.9290 0
M  V30 52 Ag 3.1981 6.3232 1.7568 0
M  V30 53 Fe 3.4214 5.8306 -0.5541 0
M  V30 54 Ag 3.3844 5.1801 -2.8362 0
M  V30 55 Ag 5.5081 -1.0101 2.7148 0
M  V30 56 Fe 5.1033 -1.3080 0.3887 0
M  V30 57 Ag 4.7490 -1.3635 -1.9639 0
M  V30 58 Ag 6.6336 0.9652 2.3647 0
M  V30 59 Fe 6.2937 0.9094 0.0189 0
M  V30 60 Ag 5.7592 0.6607 -2.2778 0
M  V30 61 Ag 0.9498 5.9302 1.8151 0
M  V30 62 Fe 0.8993 5.4315 -0.5090 0
M  V30 63 Ag 1.1297 4.8694 -2.8077 0
M  V30 64 Ag 6.1338 1.8020 4.6357 0
M  V30 65 Fe 4.9550 3.8550 4.5589 0
M  V30 66 Ag 3.5006 5.6781 4.1452 0
M  V30 67 Ag -5.7021 -1.1747 2.9984 0
M  V30 68 Fe -4.2594 -3.0600 2.9827 0
M  V30 69 Ag -2.7976 -4.9021 2.6574 0
M  V30 70 Ag -0.3328 -1.0028 -5.7781 0
M  V30 71 Fe 0.4184 1.2185 -5.4197 0
M  V30 72 Ag 1.2580 3.3838 -4.9365 0
M  V30 73 Ag -0.1641 -4.1624 -4.3204 0
M  V30 74 Fe -0.5958 -5.2451 -2.2523 0
M  V30 75 Ag -1.1161 -6.1372 -0.1149 0
M  V30 76 Ag -3.3868 -6.2555 0.6534 0
M  V30 77 Fe -5.2755 -5.4371 -0.5280 0
M  V30 78 Ag -7.0414 -4.3322 -1.6653 0
M  V30 79 Ag -2.0143 -2.6515 -5.1765 0
M  V30 80 Fe -4.1993 -2.6559 -4.2402 0
M  V30 81 Ag -6.4156 -2.6603 -3.3807 0
M  V30 82 Ba 1.4834 -2.6500 -5.3409 0
M  V30 83 Ga 2.7229 -2.0122 -4.8492 0
M  V30 84 Ba 4.0309 -1.4548 -4.4449 0
M  V30 85 Ba 1.1452 5.2669 4.3658 0
M  V30 86 Ga 0.8452 3.8703 4.7503 0
M  V30 87 Ba 0.5486 2.4721 5.1315 0
M  V30 88 Ba -7.0538 0.6530 0.3831 0
M  V30 89 Ga -7.4137 -0.0841 -0.8468 0
M  V30 90 Ba -7.7278 -0.9542 -2.0000 0
M  V30 91 Ba -7.8491 -1.0818 1.7871 0
M  V30 92 Ga -8.2540 -1.9125 0.6435 0
M  V30 93 Ba -8.5098 -2.6822 -0.5830 0
M  V30 94 Ba 3.6176 3.5658 -4.8868 0
M  V30 95 Ga 4.2781 2.2494 -4.7647 0
M  V30 96 Ba 4.9151 0.9253 -4.6065 0
M  V30 97 Ba 4.9455 -0.1817 5.1652 0
M  V30 98 Ga 3.5070 0.0732 5.3809 0
M  V30 99 Ba 2.0655 0.3523 5.5402 0
M  V30 END ATOM
M  V30 BEGIN BOND
M  V30 1 1 1 2
M  V30 2 1 1 3
M  V30 3 1 1 4
M  V30 4 1 1 5
M  V30 5 1 6 7
M  V30 6 1 6 8
M  V30 7 1 6 9
M  V30 8 1 6 10
M  V30 9 1 11 12
M  V30 10 1 11 13
M  V30 11 1 11 14
M  V30 12 1 11 15
M  V30 13 1 16 17
M  V30 14 1 16 18
M  V30 15 1 16 19
M  V30 16 1 16 20
M  V30 17 1 21 22
M  V30 18 1 21 23
M  V30 19 1 21 24
M  V30 20 1 21 25
M  V30 21 1 26 27
M  V30 22 1 26 28
M  V30 23 1 26 29
M  V30 24 1 26 30
M  V30 25 1 31 32
M  V30 26 1 31 33
M  V30 27 1 31 34
M  V30 28 1 31 35
M  V30 29 1 36 37
M  V30 30 1 36 38
M  V30 31 1 36 39
M  V30 32 1 36 40
M  V30 33 1 41 42
M  V30 34 1 41 43
M  V30 35 1 41 44
M  V30 36 1 41 45
M  V30 37 1 46 47
M  V30 38 1 47 48
M  V30 39 1 49 50
M  V30 40 1 50 51
M  V30 41 1 52 53
M  V30 42 1 53 54
M  V30 43 1 55 56
M  V30 44 1 56 57
M  V30 45 1 58 59
M  V30 46 1 59 60
M  V30 47 1 61 62
M  V30 48 1 62 63
M  V30 49 1 64 65
M  V30 50 1 65 66
M  V30 51 1 67 68
M  V30 52 1 68 69
M  V30 53 1 70 71
M  V30 54 1 71 72
M  V30 55 1 73 74
M  V30 56 1 74 75
M  V30 57 1 76 77
M  V30 58 1 77 78
M  V30 59 1 79 80
M  V30 60 1 80 81
M  V30 61 1 82 83
M  V30 62 1 83 84
M  V30 63 1 85 86
M  V30 64 1 86 87
M  V30 65 1 88 89
M  V30 66 1 89 90
M  V30 67 1 91 92
M  V30 68 1 92 93
M  V30 69 1 94 95
M  V30 70 1 95 96
M  V30 71 1 97 98
M  V30 72 1 98 99
M  V30 73 1 2 82
M  V30 74 1 3 79
M  V30 75 1 4 70
M  V30 76 1 5 73
M  V30 77 1 7 46
M  V30 78 1 8 91
M  V30 79 1 9 67
M  V30 80 1 10 88
M  V30 81 1 12 58
M  V30 82 1 13 97
M  V30 83 1 14 64
M  V30 84 1 15 55
M  V30 85 1 17 66
M  V30 86 1 18 52
M  V30 87 1 19 85
M  V30 88 1 20 61
M  V30 89 1 22 48
M  V30 90 1 23 99
M  V30 91 1 24 87
M  V30 92 1 25 49
M  V30 93 1 27 54
M  V30 94 1 28 94
M  V30 95 1 29 72
M  V30 96 1 30 63
M  V30 97 1 32 84
M  V30 98 1 33 96
M  V30 99 1 34 57
M  V30 100 1 35 60
M  V30 101 1 37 51
M  V30 102 1 38 76
M  V30 103 1 39 69
M  V30 104 1 40 75
M  V30 105 1 42 93
M  V30 106 1 43 81
M  V30 107 1 44 78
M  V30 108 1 45 90
M  V30 END BOND
M  V30 END CTAB
M  END

$$$$
