
     RDKit          3D

  0  0  0  0  0  0  0  0  0  0999 V3000
M  V30 BEGIN CTAB
M  V30 COUNTS 99 108 0 0 0
M  V30 BEGIN ATOM
M  V30 1 Pd -4.0829 1.2575 1.2092 0
M  V30 2 Pb -4.7637 1.7178 0.6381 0
M  V30 3 Pb -4.1582 0.4421 0.6342 0
M  V30 4 Pb -3.9771 2.0728 1.7786 0
M  V30 5 Pb -3.3940 0.8065 1.7741 0
M  V30 6 Pd 0.7095 -8.4850 -0.6742 0
M  V30 7 Pb 1.4134 -7.8919 -1.0610 0
M  V30 8 Pb -0.0027 -9.0509 -0.2704 0
M  V30 9 Pb 1.1887 -8.4924 0.2017 0
M  V30 10 Pb 0.1322 -8.3777 -1.4860 0
M  V30 11 Pd 2.1461 1.8956 -4.1397 0
M  V30 12 Pb 1.4995 1.1949 -4.4171 0
M  V30 13 Pb 2.8547 1.2093 -3.9829 0
M  V30 14 Pb 2.8211 2.5758 -3.8601 0
M  V30 15 Pb 1.4228 2.6035 -4.2677 0
M  V30 16 Pd 4.3767 6.1520 1.5004 0
M  V30 17 Pb 4.8066 5.8629 0.6502 0
M  V30 18 Pb 3.7942 6.4578 2.2736 0
M  V30 19 Pb 4.2764 5.1911 1.7669 0
M  V30 20 Pb 4.4740 7.1010 1.2176 0
M  V30 21 Pd 4.0709 -1.6456 -0.0694 0
M  V30 22 Pb 4.0483 -2.5245 -0.5438 0
M  V30 23 Pb 4.2281 -1.2157 -0.9608 0
M  V30 24 Pb 4.0766 -0.7736 0.4282 0
M  V30 25 Pb 3.9783 -2.1206 0.8082 0
M  V30 26 Pd -0.8408 8.2140 2.2393 0
M  V30 27 Pb -0.0375 7.9870 2.8168 0
M  V30 28 Pb -1.5536 8.3351 1.5519 0
M  V30 29 Pb -1.3678 7.4533 2.6186 0
M  V30 30 Pb -0.3348 8.9833 1.8625 0
M  V30 31 Pd -3.4748 3.8719 -3.2056 0
M  V30 32 Pb -4.3371 3.6861 -2.7366 0
M  V30 33 Pb -3.4863 4.7935 -2.8156 0
M  V30 34 Pb -2.5589 4.0227 -3.6258 0
M  V30 35 Pb -3.4887 2.9557 -3.5884 0
M  V30 36 Pd 0.5267 -4.7765 3.1500 0
M  V30 37 Pb 1.4625 -4.4220 3.1068 0
M  V30 38 Pb -0.4219 -5.0952 3.2378 0
M  V30 39 Pb 0.8920 -5.7060 3.0462 0
M  V30 40 Pb 0.1900 -3.8451 3.2762 0
M  V30 41 Pd -3.4733 -6.4764 -0.0097 0
M  V30 42 Pb -3.3221 -7.4186 0.2780 0
M  V30 43 Pb -3.6509 -5.5370 -0.3056 0
M  V30 44 Pb -3.5197 -6.2131 0.9521 0
M  V30 45 Pb -3.2669 -6.7567 -0.9487 0
M  V30 46 Ag 1.9395 -7.4280 -1.3220 0
M  V30 47 Fe 3.0044 -5.3145 -1.1434 0
M  V30 48 Ag 4.0179 -3.1821 -0.9010 0
M  V30 49 Ag 4.2095 4.4660 1.9557 0
M  V30 50 Fe 4.1438 2.1667 1.3502 0
M  V30 51 Ag 4.0622 -0.1609 0.8675 0
M  V30 52 Ag 0.9227 0.7638 -4.5850 0
M  V30 53 Fe -1.3993 1.1068 -4.3980 0
M  V30 54 Ag -3.3703 2.2826 -3.8712 0
M  V30 55 Ag 4.3873 7.8130 1.0339 0
M  V30 56 Fe 2.4463 9.1412 1.1204 0
M  V30 57 Ag 0.1625 9.4605 1.5913 0
M  V30 58 Ag 3.3681 3.0285 -3.6236 0
M  V30 59 Fe 4.2782 4.3578 -1.8831 0
M  V30 60 Ag 5.0144 5.6441 -0.0318 0
M  V30 61 Ag -3.8599 2.6702 2.2169 0
M  V30 62 Fe -2.8328 4.7841 2.5601 0
M  V30 63 Ag -1.7962 6.8968 2.8823 0
M  V30 64 Ag -2.8706 0.4902 2.2057 0
M  V30 65 Fe -1.4732 -1.3401 2.7798 0
M  V30 66 Ag -0.0604 -3.1483 3.3850 0
M  V30 67 Ag -4.2035 -0.1626 0.1919 0
M  V30 68 Fe -3.9959 -2.5043 -0.1511 0
M  V30 69 Ag -3.8016 -4.8399 -0.5400 0
M  V30 70 Ag -2.0357 8.3345 0.9801 0
M  V30 71 Fe -2.8402 6.9695 -0.7883 0
M  V30 72 Ag -3.5298 5.4724 -2.4976 0
M  V30 73 Ba -5.2630 2.0583 0.1928 0
M  V30 74 Ga -5.1441 2.8000 -1.0764 0
M  V30 75 Ba -4.9552 3.5309 -2.3432 0
M  V30 76 Ba 3.9616 -2.4860 1.4653 0
M  V30 77 Ga 3.0290 -3.3131 2.2582 0
M  V30 78 Ba 2.1624 -4.1485 3.1148 0
M  V30 79 Ba 3.3344 6.7000 2.8359 0
M  V30 80 Ga 1.9520 7.2484 2.9930 0
M  V30 81 Ba 0.5822 7.8011 3.2263 0
M  V30 82 Ba 0.9077 3.1614 -4.3926 0
M  V30 83 Ga -0.5029 3.5855 -4.1220 0
M  V30 84 Ba -1.8752 4.1599 -3.9490 0
M  V30 85 Ba -0.3737 -8.2555 -2.0290 0
M  V30 86 Ga -1.7110 -7.6365 -1.9075 0
M  V30 87 Ba -3.0128 -6.9999 -1.6133 0
M  V30 88 Ba -0.5780 -9.4108 0.0359 0
M  V30 89 Ga -1.9108 -8.8567 0.2945 0
M  V30 90 Ba -3.1690 -8.1235 0.4685 0
M  V30 91 Ba 1.4813 -8.4533 0.8901 0
M  V30 92 Ga 1.3574 -7.4235 1.9423 0
M  V30 93 Ba 1.2190 -6.3826 2.9819 0
M  V30 94 Ba -1.1504 -5.2655 3.3394 0
M  V30 95 Ga -2.3120 -5.6594 2.5145 0
M  V30 96 Ba -3.4674 -6.0570 1.6828 0
M  V30 97 Ba 3.4177 0.7329 -3.8518 0
M  V30 98 Ga 3.8666 -0.1118 -2.7276 0
M  V30 99 Ba 4.3914 -0.9818 -1.6570 0
M  V30 END ATOM
M  V30 BEGIN BOND
M  V30 1 1 1 2
M  V30 2 1 1 3
M  V30 3 1 1 4
M  V30 4 1 1 5
M  V30 5 1 6 7
M  V30 6 1 6 8
M  V30 7 1 6 9
M  V30 8 1 6 10
M  V30 9 1 11 12
M  V30 10 1 11 13
M  V30 11 1 11 14
M  V30 12 1 11 15
M  V30 13 1 16 17
M  V30 14 1 16 18
M  V30 15 1 16 19
M  V30 16 1 16 20
M  V30 17 1 21 22
M  V30 18 1 21 23
M  V30 19 1 21 24
M  V30 20 1 21 25
M  V30 21 1 26 27
M  V30 22 1 26 28
M  V30 23 1 26 29
M  V30 24 1 26 30
M  V30 25 1 31 32
M  V30 26 1 31 33
M  V30 27 1 31 34
M  V30 28 1 31 35
M  V30 29 1 36 37
M  V30 30 1 36 38
M  V30 31 1 36 39
M  V30 32 1 36 40
M  V30 33 1 41 42
M  V30 34 1 41 43
M  V30 35 1 41 44
M  V30 36 1 41 45
M  V30 37 1 46 47
M  V30 38 1 47 48
M  V30 39 1 49 50
M  V30 40 1 50 51
M  V30 41 1 52 53
M  V30 42 1 53 54
M  V30 43 1 55 56
M  V30 44 1 56 57
M  V30 45 1 58 59
M  V30 46 1 59 60
M  V30 47 1 61 62
M  V30 48 1 62 63
M  V30 49 1 64 65
M  V30 50 1 65 66
M  V30 51 1 67 68
M  V30 52 1 68 69
M  V30 53 1 70 71
M  V30 54 1 71 72
M  V30 55 1 73 74
M  V30 56 1 74 75
M  V30 57 1 76 77
M  V30 58 1 77 78
M  V30 59 1 79 80
M  V30 60 1 80 81
M  V30 61 1 82 83
M  V30 62 1 83 84
M  V30 63 1 85 86
M  V30 64 1 86 87
M  V30 65 1 88 89
M  V30 66 1 89 90
M  V30 67 1 91 92
M  V30 68 1 92 93
M  V30 69 1 94 95
M  V30 70 1 95 96
M  V30 71 1 97 98
M  V30 72 1 98 99
M  V30 73 1 2 73
M  V30 74 1 3 67
M  V30 75 1 4 61
M  V30 76 1 5 64
M  V30 77 1 7 46
M  V30 78 1 8 88
M  V30 79 1 9 91
M  V30 80 1 10 85
M  V30 81 1 12 52
M  V30 82 1 13 97
M  V30 83 1 14 58
M  V30 84 1 15 82
M  V30 85 1 17 60
M  V30 86 1 18 79
M  V30 87 1 19 49
M  V30 88 1 20 55
M  V30 89 1 22 48
M  V30 90 1 23 99
M  V30 91 1 24 51
M  V30 92 1 25 76
M  V30 93 1 27 81
M  V30 94 1 28 70
M  V30 95 1 29 63
M  V30 96 1 30 57
M  V30 97 1 32 75
M  V30 98 1 33 72
M  V30 99 1 34 84
M  V30 100 1 35 54
M  V30 101 1 37 78
M  V30 102 1 38 94
M  V30 103 1 39 93
M  V30 104 1 40 66
M  V30 105 1 42 90
M  V30 106 1 43 69
M  V30 107 1 44 96
M  V30 108 1 45 87
M  V30 END BOND
M  V30 END CTAB
M  END

$$$$
