
     RDKit          3D

  0  0  0  0  0  0  0  0  0  0999 V3000
M  V30 BEGIN CTAB
M  V30 COUNTS 99 108 0 0 0
M  V30 BEGIN ATOM
M  V30 1 Pd 2.5673 3.8547 -1.2678 0
M  V30 2 Pb 1.6697 3.9512 -1.7014 0
M  V30 3 Pb 3.4847 3.8405 -0.8591 0
M  V30 4 Pb 2.2227 4.0562 -0.3460 0
M  V30 5 Pb 2.9172 3.7169 -2.1981 0
M  V30 6 Pd 3.5955 -2.8621 1.7096 0
M  V30 7 Pb 2.7943 -2.2757 1.5900 0
M  V30 8 Pb 4.4006 -3.4388 1.8161 0
M  V30 9 Pb 3.3158 -3.4076 0.9218 0
M  V30 10 Pb 4.0112 -2.1763 2.3308 0
M  V30 11 Pd -6.6218 -3.2645 -1.3808 0
M  V30 12 Pb -7.1973 -2.4659 -1.2134 0
M  V30 13 Pb -5.9769 -4.0136 -1.5349 0
M  V30 14 Pb -6.7174 -3.5406 -0.4265 0
M  V30 15 Pb -6.4455 -2.8806 -2.2874 0
M  V30 16 Pd -2.5946 -1.7911 4.4969 0
M  V30 17 Pb -3.4636 -2.2467 4.3065 0
M  V30 18 Pb -1.7205 -1.3219 4.6435 0
M  V30 19 Pb -2.1372 -2.6385 4.2312 0
M  V30 20 Pb -3.0677 -0.9375 4.7043 0
M  V30 21 Pd -1.5130 -3.3844 -0.3010 0
M  V30 22 Pb -0.9387 -2.6663 0.0939 0
M  V30 23 Pb -2.1123 -4.0863 -0.6907 0
M  V30 24 Pb -1.4495 -3.8800 0.5656 0
M  V30 25 Pb -1.5260 -2.8799 -1.1644 0
M  V30 26 Pd -1.1638 3.1203 3.3337 0
M  V30 27 Pb -0.6244 2.3935 3.7637 0
M  V30 28 Pb -1.7320 3.8067 2.8822 0
M  V30 29 Pb -0.3426 3.5381 2.9375 0
M  V30 30 Pb -1.9824 2.7389 3.7625 0
M  V30 31 Pd -5.1437 3.4412 -2.7141 0
M  V30 32 Pb -4.2500 3.7170 -3.0630 0
M  V30 33 Pb -5.0219 4.1015 -1.9764 0
M  V30 34 Pb -5.2185 2.6962 -3.3783 0
M  V30 35 Pb -5.9878 3.0944 -2.3101 0
M  V30 36 Pd 3.3870 -0.2154 -4.7184 0
M  V30 37 Pb 2.3903 -0.2793 -4.7379 0
M  V30 38 Pb 4.3789 -0.1318 -4.6270 0
M  V30 39 Pb 3.3842 -1.1725 -4.4263 0
M  V30 40 Pb 3.3771 0.7696 -4.8816 0
M  V30 41 Pd 7.3444 1.0071 0.8447 0
M  V30 42 Pb 7.8983 0.1898 0.9743 0
M  V30 43 Pb 6.8274 1.8572 0.7149 0
M  V30 44 Pb 7.7172 1.1020 -0.0746 0
M  V30 45 Pb 6.8140 0.7563 1.6721 0
M  V30 46 Ag 1.0518 4.0573 -2.1167 0
M  V30 47 Fe -1.2593 3.9683 -2.6592 0
M  V30 48 Ag -3.5560 3.9124 -3.2640 0
M  V30 49 Ag -1.4792 -2.4865 -1.8013 0
M  V30 50 Fe -0.0080 -1.3999 -3.3153 0
M  V30 51 Ag 1.6516 -0.3874 -4.6784 0
M  V30 52 Ag -6.2974 -2.4759 -2.9016 0
M  V30 53 Fe -5.7849 -0.2431 -3.5314 0
M  V30 54 Ag -5.2985 2.0687 -3.7829 0
M  V30 55 Ag 5.0876 -3.7122 1.8531 0
M  V30 56 Fe 7.0879 -2.5150 1.5440 0
M  V30 57 Ag 8.1847 -0.4830 1.0960 0
M  V30 58 Ag -7.5496 -1.8114 -1.1273 0
M  V30 59 Fe -7.2415 0.5110 -1.4995 0
M  V30 60 Ag -6.5695 2.7258 -2.0189 0
M  V30 61 Ag -6.7182 -3.6694 0.3103 0
M  V30 62 Fe -5.4933 -3.2055 2.2893 0
M  V30 63 Ag -4.0922 -2.6029 4.1076 0
M  V30 64 Ag 3.2014 -3.6968 0.2409 0
M  V30 65 Fe 3.2174 -2.9583 -2.0160 0
M  V30 66 Ag 3.3100 -1.8520 -4.1155 0
M  V30 67 Ag 5.1031 0.0114 -4.4977 0
M  V30 68 Fe 6.6484 0.5610 -2.7834 0
M  V30 69 Ag 7.8584 1.0670 -0.8068 0
M  V30 70 Ag -2.1844 4.2767 2.5147 0
M  V30 71 Fe -3.5587 4.5404 0.5988 0
M  V30 72 Ag -4.8517 4.5327 -1.3902 0
M  V30 73 Ba 2.1991 -1.8294 1.4942 0
M  V30 74 Ga 0.8396 -1.9866 0.9427 0
M  V30 75 Ba -0.5247 -2.1180 0.3964 0
M  V30 76 Ba -1.8438 -3.2820 3.9843 0
M  V30 77 Ga -1.5900 -3.7803 2.6197 0
M  V30 78 Ba -1.3607 -4.2175 1.2300 0
M  V30 79 Ba -1.0766 -0.9436 4.7387 0
M  V30 80 Ga -0.6464 0.4349 4.4199 0
M  V30 81 Ba -0.2562 1.8214 4.0846 0
M  V30 82 Ba 4.3543 -1.6294 2.7425 0
M  V30 83 Ga 5.3740 -0.5638 2.4884 0
M  V30 84 Ba 6.3915 0.5099 2.2614 0
M  V30 85 Ba -3.4036 -0.2803 4.8239 0
M  V30 86 Ga -3.0174 1.0978 4.4748 0
M  V30 87 Ba -2.5876 2.4571 4.1038 0
M  V30 88 Ba 2.0578 4.2567 0.3623 0
M  V30 89 Ga 1.1140 4.0171 1.4758 0
M  V30 90 Ba 0.2676 3.8982 2.6833 0
M  V30 91 Ba 3.1150 3.6592 -2.9231 0
M  V30 92 Ga 3.2683 2.5888 -3.9296 0
M  V30 93 Ba 3.4240 1.5154 -4.9326 0
M  V30 94 Ba 4.1505 3.9178 -0.5129 0
M  V30 95 Ga 5.2935 3.1476 0.0252 0
M  V30 96 Ba 6.5036 2.5293 0.6107 0
M  V30 97 Ba -5.4600 -4.5501 -1.6255 0
M  V30 98 Ga -4.0168 -4.5984 -1.3161 0
M  V30 99 Ba -2.5768 -4.5972 -0.9883 0
M  V30 END ATOM
M  V30 BEGIN BOND
M  V30 1 1 1 2
M  V30 2 1 1 3
M  V30 3 1 1 4
M  V30 4 1 1 5
M  V30 5 1 6 7
M  V30 6 1 6 8
M  V30 7 1 6 9
M  V30 8 1 6 10
M  V30 9 1 11 12
M  V30 10 1 11 13
M  V30 11 1 11 14
M  V30 12 1 11 15
M  V30 13 1 16 17
M  V30 14 1 16 18
M  V30 15 1 16 19
M  V30 16 1 16 20
M  V30 17 1 21 22
M  V30 18 1 21 23
M  V30 19 1 21 24
M  V30 20 1 21 25
M  V30 21 1 26 27
M  V30 22 1 26 28
M  V30 23 1 26 29
M  V30 24 1 26 30
M  V30 25 1 31 32
M  V30 26 1 31 33
M  V30 27 1 31 34
M  V30 28 1 31 35
M  V30 29 1 36 37
M  V30 30 1 36 38
M  V30 31 1 36 39
M  V30 32 1 36 40
M  V30 33 1 41 42
M  V30 34 1 41 43
M  V30 35 1 41 44
M  V30 36 1 41 45
M  V30 37 1 46 47
M  V30 38 1 47 48
M  V30 39 1 49 50
M  V30 40 1 50 51
M  V30 41 1 52 53
M  V30 42 1 53 54
M  V30 43 1 55 56
M  V30 44 1 56 57
M  V30 45 1 58 59
M  V30 46 1 59 60
M  V30 47 1 61 62
M  V30 48 1 62 63
M  V30 49 1 64 65
M  V30 50 1 65 66
M  V30 51 1 67 68
M  V30 52 1 68 69
M  V30 53 1 70 71
M  V30 54 1 71 72
M  V30 55 1 73 74
M  V30 56 1 74 75
M  V30 57 1 76 77
M  V30 58 1 77 78
M  V30 59 1 79 80
M  V30 60 1 80 81
M  V30 61 1 82 83
M  V30 62 1 83 84
M  V30 63 1 85 86
M  V30 64 1 86 87
M  V30 65 1 88 89
M  V30 66 1 89 90
M  V30 67 1 91 92
M  V30 68 1 92 93
M  V30 69 1 94 95
M  V30 70 1 95 96
M  V30 71 1 97 98
M  V30 72 1 98 99
M  V30 73 1 2 46
M  V30 74 1 3 94
M  V30 75 1 4 88
M  V30 76 1 5 91
M  V30 77 1 7 73
M  V30 78 1 8 55
M  V30 79 1 9 64
M  V30 80 1 10 82
M  V30 81 1 12 58
M  V30 82 1 13 97
M  V30 83 1 14 61
M  V30 84 1 15 52
M  V30 85 1 17 63
M  V30 86 1 18 79
M  V30 87 1 19 76
M  V30 88 1 20 85
M  V30 89 1 22 75
M  V30 90 1 23 99
M  V30 91 1 24 78
M  V30 92 1 25 49
M  V30 93 1 27 81
M  V30 94 1 28 70
M  V30 95 1 29 90
M  V30 96 1 30 87
M  V30 97 1 32 48
M  V30 98 1 33 72
M  V30 99 1 34 54
M  V30 100 1 35 60
M  V30 101 1 37 51
M  V30 102 1 38 67
M  V30 103 1 39 66
M  V30 104 1 40 93
M  V30 105 1 42 57
M  V30 106 1 43 96
M  V30 107 1 44 69
M  V30 108 1 45 84
M  V30 END BOND
M  V30 END CTAB
M  END

$$$$
