
     RDKit          3D

  0  0  0  0  0  0  0  0  0  0999 V3000
M  V30 BEGIN CTAB
M  V30 COUNTS 99 108 0 0 0
M  V30 BEGIN ATOM
M  V30 1 Pd -2.8351 4.6260 -0.0502 0
M  V30 2 Pb -2.4307 5.2697 -0.7012 0
M  V30 3 Pb -2.4223 5.1642 0.6817 0
M  V30 4 Pb -3.1798 4.0177 -0.7731 0
M  V30 5 Pb -3.2749 4.0670 0.6596 0
M  V30 6 Pd 1.0545 6.0261 -4.2474 0
M  V30 7 Pb 1.6764 5.7317 -4.9580 0
M  V30 8 Pb 1.7394 5.7087 -3.5831 0
M  V30 9 Pb 0.3955 6.3376 -3.5638 0
M  V30 10 Pb 0.3529 6.0325 -4.9520 0
M  V30 11 Pd -1.1865 -0.2792 -5.8022 0
M  V30 12 Pb -1.2115 -1.1955 -5.3984 0
M  V30 13 Pb -1.2046 0.6266 -6.2306 0
M  V30 14 Pb -0.4341 -0.6172 -6.3775 0
M  V30 15 Pb -1.9003 0.0725 -5.1883 0
M  V30 16 Pd 3.8417 -0.2812 -4.9194 0
M  V30 17 Pb 3.4344 -0.8188 -5.6580 0
M  V30 18 Pb 3.9239 -1.0971 -4.3446 0
M  V30 19 Pb 3.8527 0.4954 -5.5322 0
M  V30 20 Pb 4.0678 0.3704 -4.1837 0
M  V30 21 Pd 4.3222 -2.6930 0.3756 0
M  V30 22 Pb 4.1998 -3.6670 0.5414 0
M  V30 23 Pb 4.3603 -2.8462 -0.6117 0
M  V30 24 Pb 4.2159 -2.5683 1.3668 0
M  V30 25 Pb 4.3196 -1.7041 0.2639 0
M  V30 26 Pd -3.5699 -0.6806 5.8445 0
M  V30 27 Pb -3.2962 -1.5154 6.3300 0
M  V30 28 Pb -4.0664 -1.2094 5.1702 0
M  V30 29 Pb -3.8377 0.1288 5.3146 0
M  V30 30 Pb -3.0255 -0.1259 6.4667 0
M  V30 31 Pd -0.2569 -5.2138 5.1030 0
M  V30 32 Pb 0.3898 -5.6236 4.4614 0
M  V30 33 Pb 0.4911 -4.6115 5.3807 0
M  V30 34 Pb -0.9672 -5.7262 4.6263 0
M  V30 35 Pb -0.9019 -4.8020 5.7547 0
M  V30 36 Pd -1.8896 -2.9890 -0.9957 0
M  V30 37 Pb -1.5605 -2.7608 -0.0681 0
M  V30 38 Pb -2.5866 -2.8001 -0.3146 0
M  V30 39 Pb -1.6839 -3.2514 -1.9363 0
M  V30 40 Pb -2.0441 -3.9263 -0.6838 0
M  V30 41 Pd 0.7680 1.7836 4.5612 0
M  V30 42 Pb 0.7633 2.7760 4.6441 0
M  V30 43 Pb 0.2639 1.7104 5.4210 0
M  V30 44 Pb 1.3094 1.8665 3.7269 0
M  V30 45 Pb 0.6204 0.8113 4.3509 0
M  V30 46 Ag -3.4170 3.5153 -1.2855 0
M  V30 47 Fe -2.9311 1.9534 -3.0164 0
M  V30 48 Ag -2.4185 0.3980 -4.7455 0
M  V30 49 Ag 4.2136 -0.9671 0.2828 0
M  V30 50 Fe 3.0323 0.6109 1.5983 0
M  V30 51 Ag 1.7411 1.8934 3.1169 0
M  V30 52 Ag -3.6222 3.7306 1.2395 0
M  V30 53 Fe -3.7912 2.1882 3.0442 0
M  V30 54 Ag -4.0764 0.6911 4.8724 0
M  V30 55 Ag 4.0019 -4.3488 0.7681 0
M  V30 56 Fe 2.4925 -5.3028 2.3274 0
M  V30 57 Ag 0.8866 -5.8911 3.9696 0
M  V30 58 Ag 2.2512 5.3018 -3.1986 0
M  V30 59 Fe 3.2908 3.1547 -3.3066 0
M  V30 60 Ag 4.1338 0.9557 -3.7029 0
M  V30 61 Ag -2.0521 5.4697 1.2540 0
M  V30 62 Fe -0.6544 4.7719 3.0341 0
M  V30 63 Ag 0.6301 3.5044 4.5672 0
M  V30 64 Ag -1.2773 -2.6351 0.6262 0
M  V30 65 Fe -0.4132 -1.2589 2.3718 0
M  V30 66 Ag 0.4499 0.1098 4.1238 0
M  V30 67 Ag -0.1068 5.7961 -5.4888 0
M  V30 68 Fe -0.8205 3.6323 -6.1539 0
M  V30 69 Ag -1.2866 1.3283 -6.4895 0
M  V30 70 Ag 4.0843 -2.5235 2.1085 0
M  V30 71 Fe 2.6732 -3.2526 3.8797 0
M  V30 72 Ag 1.0891 -4.1582 5.4056 0
M  V30 73 Ag -4.3765 -1.5381 4.5843 0
M  V30 74 Fe -3.8531 -2.1881 2.3720 0
M  V30 75 Ag -3.1273 -2.7541 0.1936 0
M  V30 76 Ag 2.1103 5.4280 -5.4715 0
M  V30 77 Fe 3.1038 3.3402 -5.9332 0
M  V30 78 Ag 3.8699 1.1101 -5.9413 0
M  V30 79 Ag -1.3936 -6.0357 4.0960 0
M  V30 80 Fe -1.9393 -5.5095 1.8469 0
M  V30 81 Ag -2.2046 -4.5573 -0.3113 0
M  V30 82 Ba -1.2071 -1.9061 -5.1529 0
M  V30 83 Ga -1.3768 -2.6493 -3.8903 0
M  V30 84 Ba -1.5407 -3.4287 -2.6487 0
M  V30 85 Ba 0.1395 -0.9271 -6.7603 0
M  V30 86 Ga 1.5959 -1.0501 -6.5205 0
M  V30 87 Ba 3.0438 -1.1301 -6.2194 0
M  V30 88 Ba -2.5768 0.2980 6.8848 0
M  V30 89 Ga -1.3362 0.9974 6.5161 0
M  V30 90 Ba -0.1040 1.6681 6.0727 0
M  V30 91 Ba 4.0287 -1.7517 -3.9905 0
M  V30 92 Ga 4.1857 -2.3205 -2.6377 0
M  V30 93 Ba 4.3565 -3.0093 -1.3435 0
M  V30 94 Ba -3.1001 -2.1457 6.6938 0
M  V30 95 Ga -2.2270 -3.3162 6.4478 0
M  V30 96 Ba -1.3744 -4.5134 6.2680 0
M  V30 97 Ba -2.1454 5.8366 -1.1032 0
M  V30 98 Ga -1.1166 6.1515 -2.1127 0
M  V30 99 Ba -0.1345 6.6142 -3.1120 0
M  V30 END ATOM
M  V30 BEGIN BOND
M  V30 1 1 1 2
M  V30 2 1 1 3
M  V30 3 1 1 4
M  V30 4 1 1 5
M  V30 5 1 6 7
M  V30 6 1 6 8
M  V30 7 1 6 9
M  V30 8 1 6 10
M  V30 9 1 11 12
M  V30 10 1 11 13
M  V30 11 1 11 14
M  V30 12 1 11 15
M  V30 13 1 16 17
M  V30 14 1 16 18
M  V30 15 1 16 19
M  V30 16 1 16 20
M  V30 17 1 21 22
M  V30 18 1 21 23
M  V30 19 1 21 24
M  V30 20 1 21 25
M  V30 21 1 26 27
M  V30 22 1 26 28
M  V30 23 1 26 29
M  V30 24 1 26 30
M  V30 25 1 31 32
M  V30 26 1 31 33
M  V30 27 1 31 34
M  V30 28 1 31 35
M  V30 29 1 36 37
M  V30 30 1 36 38
M  V30 31 1 36 39
M  V30 32 1 36 40
M  V30 33 1 41 42
M  V30 34 1 41 43
M  V30 35 1 41 44
M  V30 36 1 41 45
M  V30 37 1 46 47
M  V30 38 1 47 48
M  V30 39 1 49 50
M  V30 40 1 50 51
M  V30 41 1 52 53
M  V30 42 1 53 54
M  V30 43 1 55 56
M  V30 44 1 56 57
M  V30 45 1 58 59
M  V30 46 1 59 60
M  V30 47 1 61 62
M  V30 48 1 62 63
M  V30 49 1 64 65
M  V30 50 1 65 66
M  V30 51 1 67 68
M  V30 52 1 68 69
M  V30 53 1 70 71
M  V30 54 1 71 72
M  V30 55 1 73 74
M  V30 56 1 74 75
M  V30 57 1 76 77
M  V30 58 1 77 78
M  V30 59 1 79 80
M  V30 60 1 80 81
M  V30 61 1 82 83
M  V30 62 1 83 84
M  V30 63 1 85 86
M  V30 64 1 86 87
M  V30 65 1 88 89
M  V30 66 1 89 90
M  V30 67 1 91 92
M  V30 68 1 92 93
M  V30 69 1 94 95
M  V30 70 1 95 96
M  V30 71 1 97 98
M  V30 72 1 98 99
M  V30 73 1 2 97
M  V30 74 1 3 61
M  V30 75 1 4 46
M  V30 76 1 5 52
M  V30 77 1 7 76
M  V30 78 1 8 58
M  V30 79 1 9 99
M  V30 80 1 10 67
M  V30 81 1 12 82
M  V30 82 1 13 69
M  V30 83 1 14 85
M  V30 84 1 15 48
M  V30 85 1 17 87
M  V30 86 1 18 91
M  V30 87 1 19 78
M  V30 88 1 20 60
M  V30 89 1 22 55
M  V30 90 1 23 93
M  V30 91 1 24 70
M  V30 92 1 25 49
M  V30 93 1 27 94
M  V30 94 1 28 73
M  V30 95 1 29 54
M  V30 96 1 30 88
M  V30 97 1 32 57
M  V30 98 1 33 72
M  V30 99 1 34 79
M  V30 100 1 35 96
M  V30 101 1 37 64
M  V30 102 1 38 75
M  V30 103 1 39 84
M  V30 104 1 40 81
M  V30 105 1 42 63
M  V30 106 1 43 90
M  V30 107 1 44 51
M  V30 108 1 45 66
M  V30 END BOND
M  V30 END CTAB
M  END

$$$$
