
     RDKit          3D

  0  0  0  0  0  0  0  0  0  0999 V3000
M  V30 BEGIN CTAB
M  V30 COUNTS 99 108 0 0 0
M  V30 BEGIN ATOM
M  V30 1 Pd -5.1510 3.9087 0.6567 0
M  V30 2 Pb -5.3760 3.5019 1.5354 0
M  V30 3 Pb -5.6082 3.1410 0.1980 0
M  V30 4 Pb -4.6106 4.6156 1.1132 0
M  V30 5 Pb -4.8753 4.3306 -0.2058 0
M  V30 6 Pd 3.7764 -2.7243 -1.9686 0
M  V30 7 Pb 4.0848 -2.8691 -2.9064 0
M  V30 8 Pb 3.6130 -2.5367 -1.0115 0
M  V30 9 Pb 3.1837 -3.5424 -2.0203 0
M  V30 10 Pb 4.2161 -1.8162 -1.9398 0
M  V30 11 Pd 2.4286 0.2166 -3.9420 0
M  V30 12 Pb 1.6500 0.4235 -3.3594 0
M  V30 13 Pb 2.3935 -0.7362 -3.5952 0
M  V30 14 Pb 3.1367 -0.0664 -4.5816 0
M  V30 15 Pb 2.5098 1.1654 -4.2355 0
M  V30 16 Pd 2.4146 -3.5303 0.7160 0
M  V30 17 Pb 2.7693 -4.4643 0.6497 0
M  V30 18 Pb 2.4706 -3.3900 -0.2812 0
M  V30 19 Pb 1.8707 -2.7056 0.7456 0
M  V30 20 Pb 2.2308 -3.6880 1.6899 0
M  V30 21 Pd -0.0774 -0.6420 4.1651 0
M  V30 22 Pb -0.2453 0.3241 3.9430 0
M  V30 23 Pb 0.8548 -0.5403 3.8569 0
M  V30 24 Pb -1.0158 -0.8486 4.4482 0
M  V30 25 Pb 0.1741 -1.5970 4.3178 0
M  V30 26 Pd -1.8114 -4.6887 -1.1348 0
M  V30 27 Pb -1.7150 -5.6766 -1.0045 0
M  V30 28 Pb -1.8250 -3.6949 -1.2121 0
M  V30 29 Pb -0.8551 -4.7454 -1.4811 0
M  V30 30 Pb -2.7346 -4.6502 -0.7453 0
M  V30 31 Pd 1.1038 6.7254 -1.0657 0
M  V30 32 Pb 0.5765 6.9074 -0.2371 0
M  V30 33 Pb 1.9414 6.5439 -0.5478 0
M  V30 34 Pb 1.5667 6.4575 -1.9052 0
M  V30 35 Pb 0.2396 6.7663 -1.5653 0
M  V30 36 Pd 2.4895 2.1084 0.5977 0
M  V30 37 Pb 3.1680 1.7098 -0.0440 0
M  V30 38 Pb 1.9038 1.3160 0.5266 0
M  V30 39 Pb 1.8088 2.4404 1.2619 0
M  V30 40 Pb 3.0114 2.9627 0.6671 0
M  V30 41 Pd -5.0980 -1.1395 1.9616 0
M  V30 42 Pb -5.0178 -2.0246 1.4879 0
M  V30 43 Pb -4.6504 -1.4799 2.7879 0
M  V30 44 Pb -5.2572 -0.2979 2.4712 0
M  V30 45 Pb -5.5307 -0.7156 1.1610 0
M  V30 46 Ag 1.0280 0.4380 -2.9521 0
M  V30 47 Fe -0.4942 -1.1199 -2.0221 0
M  V30 48 Ag -1.7824 -2.9503 -1.2470 0
M  V30 49 Ag -4.1328 5.1176 1.3998 0
M  V30 50 Fe -2.0288 6.1477 1.0135 0
M  V30 51 Ag 0.0860 6.9779 0.3243 0
M  V30 52 Ag 2.7656 -5.2064 0.5727 0
M  V30 53 Fe 0.8651 -6.4212 -0.1233 0
M  V30 54 Ag -1.3702 -6.3247 -0.8748 0
M  V30 55 Ag 2.5925 1.8892 -4.3975 0
M  V30 56 Fe 2.2879 4.0950 -3.5876 0
M  V30 57 Ag 1.8607 6.1697 -2.5263 0
M  V30 58 Ag 3.6169 -2.2575 -0.3247 0
M  V30 59 Fe 2.6318 -1.4045 1.6462 0
M  V30 60 Ag 1.5340 -0.6018 3.5778 0
M  V30 61 Ag -4.5845 4.7006 -0.7883 0
M  V30 62 Fe -2.5795 5.7560 -1.4950 0
M  V30 63 Ag -0.4369 6.7019 -1.8801 0
M  V30 64 Ba -1.6862 -1.1153 4.6623 0
M  V30 65 Ga -3.0031 -1.3708 4.0436 0
M  V30 66 Ba -4.3290 -1.6343 3.4479 0
M  V30 67 Ba -5.5146 3.1682 2.1857 0
M  V30 68 Ga -5.4690 1.7495 2.5603 0
M  V30 69 Ba -5.4050 0.3159 2.8702 0
M  V30 70 Ba 2.5593 6.3297 -0.1771 0
M  V30 71 Ga 2.9941 4.9940 0.2866 0
M  V30 72 Ba 3.3612 3.6282 0.7199 0
M  V30 73 Ba -5.9173 2.5313 -0.1219 0
M  V30 74 Ga -5.8979 1.0883 0.2141 0
M  V30 75 Ba -5.8518 -0.3447 0.5880 0
M  V30 76 Ba -0.2845 1.0525 3.7427 0
M  V30 77 Ga 0.4783 1.8599 2.7558 0
M  V30 78 Ba 1.2661 2.6276 1.7569 0
M  V30 79 Ba 4.4848 -1.1065 -1.8878 0
M  V30 80 Ga 4.0655 0.1426 -1.1872 0
M  V30 81 Ba 3.6993 1.4230 -0.5141 0
M  V30 82 Ba 1.3894 -2.1450 0.7113 0
M  V30 83 Ga 1.4292 -0.6877 0.6184 0
M  V30 84 Ba 1.4062 0.7698 0.5245 0
M  V30 85 Ba 2.3865 -1.4656 -3.3681 0
M  V30 86 Ga 2.4114 -2.3213 -2.1454 0
M  V30 87 Ba 2.4489 -3.3213 -1.0367 0
M  V30 88 Ba 4.3507 -2.8545 -3.6035 0
M  V30 89 Ga 4.1147 -1.7097 -4.4783 0
M  V30 90 Ba 3.6258 -0.4374 -4.9996 0
M  V30 91 Ba 2.0287 -3.8249 2.4032 0
M  V30 92 Ga 1.2425 -3.0852 3.4130 0
M  V30 93 Ba 0.4522 -2.2910 4.3771 0
M  V30 94 Ba 2.7038 -4.1295 -2.1052 0
M  V30 95 Ga 1.2613 -4.4460 -1.8803 0
M  V30 96 Ba -0.1466 -4.9183 -1.7225 0
M  V30 97 Ba -3.4242 -4.6068 -0.4462 0
M  V30 98 Ga -4.1896 -3.6229 0.3545 0
M  V30 99 Ba -5.0323 -2.7038 1.1541 0
M  V30 END ATOM
M  V30 BEGIN BOND
M  V30 1 1 1 2
M  V30 2 1 1 3
M  V30 3 1 1 4
M  V30 4 1 1 5
M  V30 5 1 6 7
M  V30 6 1 6 8
M  V30 7 1 6 9
M  V30 8 1 6 10
M  V30 9 1 11 12
M  V30 10 1 11 13
M  V30 11 1 11 14
M  V30 12 1 11 15
M  V30 13 1 16 17
M  V30 14 1 16 18
M  V30 15 1 16 19
M  V30 16 1 16 20
M  V30 17 1 21 22
M  V30 18 1 21 23
M  V30 19 1 21 24
M  V30 20 1 21 25
M  V30 21 1 26 27
M  V30 22 1 26 28
M  V30 23 1 26 29
M  V30 24 1 26 30
M  V30 25 1 31 32
M  V30 26 1 31 33
M  V30 27 1 31 34
M  V30 28 1 31 35
M  V30 29 1 36 37
M  V30 30 1 36 38
M  V30 31 1 36 39
M  V30 32 1 36 40
M  V30 33 1 41 42
M  V30 34 1 41 43
M  V30 35 1 41 44
M  V30 36 1 41 45
M  V30 37 1 46 47
M  V30 38 1 47 48
M  V30 39 1 49 50
M  V30 40 1 50 51
M  V30 41 1 52 53
M  V30 42 1 53 54
M  V30 43 1 55 56
M  V30 44 1 56 57
M  V30 45 1 58 59
M  V30 46 1 59 60
M  V30 47 1 61 62
M  V30 48 1 62 63
M  V30 49 1 64 65
M  V30 50 1 65 66
M  V30 51 1 67 68
M  V30 52 1 68 69
M  V30 53 1 70 71
M  V30 54 1 71 72
M  V30 55 1 73 74
M  V30 56 1 74 75
M  V30 57 1 76 77
M  V30 58 1 77 78
M  V30 59 1 79 80
M  V30 60 1 80 81
M  V30 61 1 82 83
M  V30 62 1 83 84
M  V30 63 1 85 86
M  V30 64 1 86 87
M  V30 65 1 88 89
M  V30 66 1 89 90
M  V30 67 1 91 92
M  V30 68 1 92 93
M  V30 69 1 94 95
M  V30 70 1 95 96
M  V30 71 1 97 98
M  V30 72 1 98 99
M  V30 73 1 2 67
M  V30 74 1 3 73
M  V30 75 1 4 49
M  V30 76 1 5 61
M  V30 77 1 7 88
M  V30 78 1 8 58
M  V30 79 1 9 94
M  V30 80 1 10 79
M  V30 81 1 12 46
M  V30 82 1 13 85
M  V30 83 1 14 90
M  V30 84 1 15 55
M  V30 85 1 17 52
M  V30 86 1 18 87
M  V30 87 1 19 82
M  V30 88 1 20 91
M  V30 89 1 22 76
M  V30 90 1 23 60
M  V30 91 1 24 64
M  V30 92 1 25 93
M  V30 93 1 27 54
M  V30 94 1 28 48
M  V30 95 1 29 96
M  V30 96 1 30 97
M  V30 97 1 32 51
M  V30 98 1 33 70
M  V30 99 1 34 57
M  V30 100 1 35 63
M  V30 101 1 37 81
M  V30 102 1 38 84
M  V30 103 1 39 78
M  V30 104 1 40 72
M  V30 105 1 42 99
M  V30 106 1 43 66
M  V30 107 1 44 69
M  V30 108 1 45 75
M  V30 END BOND
M  V30 END CTAB
M  END

$$$$
