
     RDKit          3D

  0  0  0  0  0  0  0  0  0  0999 V3000
M  V30 BEGIN CTAB
M  V30 COUNTS 99 108 0 0 0
M  V30 BEGIN ATOM
M  V30 1 Pd -0.0958 3.6484 -1.9956 0
M  V30 2 Pb -0.6528 4.0163 -1.2452 0
M  V30 3 Pb 0.3801 4.5214 -2.0688 0
M  V30 4 Pb -0.5478 2.7615 -1.9173 0
M  V30 5 Pb 0.5433 3.2839 -2.6743 0
M  V30 6 Pd -2.8043 -3.3442 -4.6732 0
M  V30 7 Pb -1.8632 -3.6903 -4.6811 0
M  V30 8 Pb -3.0753 -4.1631 -5.1754 0
M  V30 9 Pb -2.5580 -2.5866 -4.0692 0
M  V30 10 Pb -3.7572 -3.0423 -4.6365 0
M  V30 11 Pd -1.8405 -7.3013 -2.5118 0
M  V30 12 Pb -1.3507 -7.1673 -1.6510 0
M  V30 13 Pb -2.3341 -7.3673 -3.3786 0
M  V30 14 Pb -2.6907 -7.4265 -2.0055 0
M  V30 15 Pb -1.0486 -6.9699 -3.0199 0
M  V30 16 Pd -3.3133 1.9151 2.2063 0
M  V30 17 Pb -3.7533 1.8749 1.3099 0
M  V30 18 Pb -2.9350 1.9673 3.1363 0
M  V30 19 Pb -3.7532 1.0507 2.4554 0
M  V30 20 Pb -2.8931 2.7802 1.9252 0
M  V30 21 Pd 3.3418 -3.0893 1.4514 0
M  V30 22 Pb 3.4200 -3.0474 0.4557 0
M  V30 23 Pb 3.1863 -2.9866 2.4296 0
M  V30 24 Pb 2.6451 -3.8051 1.3939 0
M  V30 25 Pb 4.0750 -2.4171 1.5270 0
M  V30 26 Pd -5.8859 -1.9017 -0.5853 0
M  V30 27 Pb -5.6810 -1.7857 0.3876 0
M  V30 28 Pb -5.7400 -0.9242 -0.7291 0
M  V30 29 Pb -5.9747 -2.8905 -0.4602 0
M  V30 30 Pb -6.0669 -2.0068 -1.5640 0
M  V30 31 Pd 4.7917 5.9811 1.9671 0
M  V30 32 Pb 4.8256 5.3455 2.7610 0
M  V30 33 Pb 5.2944 5.3582 1.3623 0
M  V30 34 Pb 4.2732 6.6247 2.5173 0
M  V30 35 Pb 4.5900 6.5341 1.1657 0
M  V30 36 Pd 4.6045 1.1570 -1.3616 0
M  V30 37 Pb 5.0516 2.0259 -1.1303 0
M  V30 38 Pb 5.0680 0.7559 -0.5766 0
M  V30 39 Pb 4.1117 1.5440 -2.1453 0
M  V30 40 Pb 4.2520 0.2477 -1.6021 0
M  V30 41 Pd 1.2852 2.8182 5.4567 0
M  V30 42 Pb 0.3246 2.5638 5.5752 0
M  V30 43 Pb 1.0332 3.7746 5.5425 0
M  V30 44 Pb 2.2473 3.0953 5.2558 0
M  V30 45 Pb 1.5421 1.8517 5.4496 0
M  V30 46 Ag 0.7954 5.1412 -2.0851 0
M  V30 47 Fe 2.5662 6.2100 -0.9335 0
M  V30 48 Ag 4.2992 6.8356 0.5519 0
M  V30 49 Ag -0.9901 -7.0282 -1.0088 0
M  V30 50 Fe 0.5784 -5.6998 0.1812 0
M  V30 51 Ag 2.1475 -4.3663 1.3646 0
M  V30 52 Ag 3.0429 -2.7828 3.1328 0
M  V30 53 Fe 2.3877 -0.8778 4.3865 0
M  V30 54 Ag 1.7284 1.1254 5.4748 0
M  V30 55 Ag 3.8032 6.9920 2.9532 0
M  V30 56 Fe 2.1601 6.2007 4.4383 0
M  V30 57 Ag 0.9634 4.5103 5.5531 0
M  V30 58 Ag -0.8752 2.0920 -1.8467 0
M  V30 59 Fe -1.6262 0.0363 -2.7671 0
M  V30 60 Ag -2.4220 -2.0566 -3.5564 0
M  V30 61 Ag -3.3368 -7.3596 -1.6358 0
M  V30 62 Fe -4.7879 -5.6180 -0.9329 0
M  V30 63 Ag -5.9828 -3.6381 -0.3973 0
M  V30 64 Ba 4.8205 4.8684 3.3631 0
M  V30 65 Ga 3.8481 4.0988 4.2056 0
M  V30 66 Ba 2.9817 3.2850 5.1191 0
M  V30 67 Ba -4.1126 1.8594 0.6524 0
M  V30 68 Ga -4.8562 0.8348 -0.1020 0
M  V30 69 Ba -5.5969 -0.1987 -0.8470 0
M  V30 70 Ba -2.7242 1.9722 3.8617 0
M  V30 71 Ga -1.5375 2.1878 4.7181 0
M  V30 72 Ba -0.4020 2.3876 5.6450 0
M  V30 73 Ba 1.0733 3.0433 -3.1493 0
M  V30 74 Ga 2.3967 2.4139 -2.9524 0
M  V30 75 Ba 3.7184 1.7858 -2.7410 0
M  V30 76 Ba -4.0901 0.4037 2.6355 0
M  V30 77 Ga -4.8034 -0.6447 1.8787 0
M  V30 78 Ba -5.5151 -1.6879 1.1134 0
M  V30 79 Ba -4.4748 -2.8300 -4.5837 0
M  V30 80 Ga -5.3419 -2.4492 -3.4520 0
M  V30 81 Ba -6.1867 -2.0723 -2.3022 0
M  V30 82 Ba 5.6761 4.9643 0.8457 0
M  V30 83 Ga 5.5148 3.7754 -0.0210 0
M  V30 84 Ba 5.4813 2.6167 -0.9413 0
M  V30 85 Ba -3.2556 -4.8304 -5.4610 0
M  V30 86 Ga -3.0142 -6.1386 -4.8299 0
M  V30 87 Ba -2.6843 -7.3370 -4.0404 0
M  V30 88 Ba -1.1858 -4.0187 -4.6802 0
M  V30 89 Ga -0.7645 -5.2994 -4.0793 0
M  V30 90 Ba -0.5332 -6.5943 -3.4107 0
M  V30 91 Ba -1.0136 4.3165 -0.6545 0
M  V30 92 Ga -1.8136 3.8524 0.5005 0
M  V30 93 Ba -2.6181 3.4319 1.6691 0
M  V30 94 Ba 4.6350 -1.9254 1.5864 0
M  V30 95 Ga 5.0354 -0.7369 0.8194 0
M  V30 96 Ba 5.3911 0.4435 0.0186 0
M  V30 97 Ba 3.4475 -2.9267 -0.2843 0
M  V30 98 Ga 3.7416 -1.6999 -1.0559 0
M  V30 99 Ba 4.0403 -0.4517 -1.7906 0
M  V30 END ATOM
M  V30 BEGIN BOND
M  V30 1 1 1 2
M  V30 2 1 1 3
M  V30 3 1 1 4
M  V30 4 1 1 5
M  V30 5 1 6 7
M  V30 6 1 6 8
M  V30 7 1 6 9
M  V30 8 1 6 10
M  V30 9 1 11 12
M  V30 10 1 11 13
M  V30 11 1 11 14
M  V30 12 1 11 15
M  V30 13 1 16 17
M  V30 14 1 16 18
M  V30 15 1 16 19
M  V30 16 1 16 20
M  V30 17 1 21 22
M  V30 18 1 21 23
M  V30 19 1 21 24
M  V30 20 1 21 25
M  V30 21 1 26 27
M  V30 22 1 26 28
M  V30 23 1 26 29
M  V30 24 1 26 30
M  V30 25 1 31 32
M  V30 26 1 31 33
M  V30 27 1 31 34
M  V30 28 1 31 35
M  V30 29 1 36 37
M  V30 30 1 36 38
M  V30 31 1 36 39
M  V30 32 1 36 40
M  V30 33 1 41 42
M  V30 34 1 41 43
M  V30 35 1 41 44
M  V30 36 1 41 45
M  V30 37 1 46 47
M  V30 38 1 47 48
M  V30 39 1 49 50
M  V30 40 1 50 51
M  V30 41 1 52 53
M  V30 42 1 53 54
M  V30 43 1 55 56
M  V30 44 1 56 57
M  V30 45 1 58 59
M  V30 46 1 59 60
M  V30 47 1 61 62
M  V30 48 1 62 63
M  V30 49 1 64 65
M  V30 50 1 65 66
M  V30 51 1 67 68
M  V30 52 1 68 69
M  V30 53 1 70 71
M  V30 54 1 71 72
M  V30 55 1 73 74
M  V30 56 1 74 75
M  V30 57 1 76 77
M  V30 58 1 77 78
M  V30 59 1 79 80
M  V30 60 1 80 81
M  V30 61 1 82 83
M  V30 62 1 83 84
M  V30 63 1 85 86
M  V30 64 1 86 87
M  V30 65 1 88 89
M  V30 66 1 89 90
M  V30 67 1 91 92
M  V30 68 1 92 93
M  V30 69 1 94 95
M  V30 70 1 95 96
M  V30 71 1 97 98
M  V30 72 1 98 99
M  V30 73 1 2 91
M  V30 74 1 3 46
M  V30 75 1 4 58
M  V30 76 1 5 73
M  V30 77 1 7 88
M  V30 78 1 8 85
M  V30 79 1 9 60
M  V30 80 1 10 79
M  V30 81 1 12 49
M  V30 82 1 13 87
M  V30 83 1 14 61
M  V30 84 1 15 90
M  V30 85 1 17 67
M  V30 86 1 18 70
M  V30 87 1 19 76
M  V30 88 1 20 93
M  V30 89 1 22 97
M  V30 90 1 23 52
M  V30 91 1 24 51
M  V30 92 1 25 94
M  V30 93 1 27 78
M  V30 94 1 28 69
M  V30 95 1 29 63
M  V30 96 1 30 81
M  V30 97 1 32 64
M  V30 98 1 33 82
M  V30 99 1 34 55
M  V30 100 1 35 48
M  V30 101 1 37 84
M  V30 102 1 38 96
M  V30 103 1 39 75
M  V30 104 1 40 99
M  V30 105 1 42 72
M  V30 106 1 43 57
M  V30 107 1 44 66
M  V30 108 1 45 54
M  V30 END BOND
M  V30 END CTAB
M  END

$$$$
