
     RDKit          3D

  0  0  0  0  0  0  0  0  0  0999 V3000
M  V30 BEGIN CTAB
M  V30 COUNTS 99 108 0 0 0
M  V30 BEGIN ATOM
M  V30 1 Pd 1.9240 -2.2676 -6.4350 0
M  V30 2 Pb 1.1485 -2.8377 -6.1617 0
M  V30 3 Pb 2.6518 -1.6324 -6.6889 0
M  V30 4 Pb 1.6415 -2.2361 -7.3954 0
M  V30 5 Pb 2.1621 -2.1728 -5.4710 0
M  V30 6 Pd 0.8732 3.5459 -9.6223 0
M  V30 7 Pb -0.1117 3.6679 -9.7118 0
M  V30 8 Pb 0.8393 2.7121 -10.1728 0
M  V30 9 Pb 1.8161 3.3089 -9.4022 0
M  V30 10 Pb 0.8443 4.2162 -8.8804 0
M  V30 11 Pd -3.6350 1.3920 5.2941 0
M  V30 12 Pb -3.9592 0.4754 5.5321 0
M  V30 13 Pb -3.2029 2.2304 4.9596 0
M  V30 14 Pb -3.1347 1.4544 6.1544 0
M  V30 15 Pb -4.1397 1.3091 4.4410 0
M  V30 16 Pd 2.4550 -1.2998 8.3665 0
M  V30 17 Pb 3.1993 -1.8533 7.9657 0
M  V30 18 Pb 1.7559 -1.9420 8.0403 0
M  V30 19 Pb 3.1460 -0.6519 8.6780 0
M  V30 20 Pb 1.7232 -0.7083 8.6926 0
M  V30 21 Pd -3.7919 -2.1215 -1.4981 0
M  V30 22 Pb -3.3624 -2.6697 -0.7727 0
M  V30 23 Pb -4.2684 -1.6056 -2.2118 0
M  V30 24 Pb -4.2428 -1.5428 -0.8250 0
M  V30 25 Pb -3.3347 -2.6745 -2.1978 0
M  V30 26 Pd -3.2983 2.6428 -4.1924 0
M  V30 27 Pb -3.5274 2.8389 -5.1447 0
M  V30 28 Pb -3.0633 2.4254 -3.2439 0
M  V30 29 Pb -2.5818 3.3376 -4.2873 0
M  V30 30 Pb -3.9839 1.9166 -4.1592 0
M  V30 31 Pd -1.2542 -3.0338 4.0006 0
M  V30 32 Pb -1.6482 -3.2128 3.0903 0
M  V30 33 Pb -0.3472 -3.1620 3.5959 0
M  V30 34 Pb -2.1552 -2.8686 4.4133 0
M  V30 35 Pb -0.8626 -3.0351 4.9282 0
M  V30 36 Pd 0.8623 2.2117 -0.1584 0
M  V30 37 Pb 1.8162 2.3676 0.0953 0
M  V30 38 Pb 0.5241 2.8901 0.4955 0
M  V30 39 Pb 1.1914 1.4526 -0.7218 0
M  V30 40 Pb -0.0939 2.0304 -0.3909 0
M  V30 41 Pd 5.9945 -0.9246 4.0798 0
M  V30 42 Pb 6.4982 -0.3253 4.6967 0
M  V30 43 Pb 5.8549 -1.5698 4.8430 0
M  V30 44 Pb 5.3984 -1.5029 3.5246 0
M  V30 45 Pb 6.0054 -0.2248 3.3680 0
M  V30 46 Ag -2.7448 1.4678 6.7913 0
M  V30 47 Fe -0.8272 0.6670 7.9314 0
M  V30 48 Ag 1.1479 -0.2625 8.8544 0
M  V30 49 Ag 2.5434 2.4090 0.2712 0
M  V30 50 Fe 4.3109 1.4420 1.5262 0
M  V30 51 Ag 5.9191 0.3245 2.8671 0
M  V30 52 Ag 0.7354 4.5904 -8.2384 0
M  V30 53 Fe -0.5826 4.3818 -6.2705 0
M  V30 54 Ag -2.0538 3.8373 -4.4834 0
M  V30 55 Ag 3.1160 -1.0949 -6.9239 0
M  V30 56 Fe 3.0450 0.9944 -8.0423 0
M  V30 57 Ag 2.4509 2.9939 -9.1685 0
M  V30 58 Ag 0.3277 -3.2350 3.2736 0
M  V30 59 Fe 2.6210 -2.6237 3.1730 0
M  V30 60 Ag 4.8942 -1.9343 3.1766 0
M  V30 61 Ag 3.7338 -0.2059 8.7695 0
M  V30 62 Fe 5.5264 0.2860 7.3181 0
M  V30 63 Ag 6.6990 0.0826 5.2828 0
M  V30 64 Ag 1.4628 -2.0698 -8.1063 0
M  V30 65 Fe 1.0989 -0.1580 -9.4703 0
M  V30 66 Ag 0.8199 2.0033 -10.4178 0
M  V30 67 Ag 2.2963 -2.0406 -4.7473 0
M  V30 68 Fe 1.8848 -0.5871 -2.9148 0
M  V30 69 Ag 1.4838 0.8552 -1.0712 0
M  V30 70 Ag -0.8521 3.7037 -9.6281 0
M  V30 71 Fe -2.4173 3.3959 -7.8739 0
M  V30 72 Ag -3.6210 3.0053 -5.8685 0
M  V30 73 Ag -4.5130 1.2000 3.8060 0
M  V30 74 Fe -4.5810 0.0793 1.7197 0
M  V30 75 Ag -4.5775 -1.0775 -0.3480 0
M  V30 76 Ag 0.5585 -3.2189 -5.8966 0
M  V30 77 Fe -1.2346 -3.2015 -4.3366 0
M  V30 78 Ag -2.9879 -3.0675 -2.7373 0
M  V30 79 Ag -2.8194 2.7890 4.6357 0
M  V30 80 Fe -1.2962 3.2177 2.8628 0
M  V30 81 Ag 0.2049 3.3188 1.0233 0
M  V30 82 Ba -4.6634 -1.2274 -2.7270 0
M  V30 83 Ga -4.5611 0.0647 -3.4320 0
M  V30 84 Ba -4.4768 1.3523 -4.1476 0
M  V30 85 Ba -4.1590 -0.2420 5.6333 0
M  V30 86 Ga -3.5043 -1.5003 5.2107 0
M  V30 87 Ba -2.8086 -2.7282 4.7647 0
M  V30 88 Ba -2.9434 2.2092 -2.5347 0
M  V30 89 Ga -1.8434 2.0827 -1.5586 0
M  V30 90 Ba -0.8265 1.9113 -0.5025 0
M  V30 91 Ba -3.0687 -3.1407 -0.2607 0
M  V30 92 Ga -2.4884 -3.1940 1.1028 0
M  V30 93 Ba -1.8879 -3.4875 2.4259 0
M  V30 94 Ba 3.7759 -2.2510 7.6691 0
M  V30 95 Ga 4.7321 -2.1269 6.5352 0
M  V30 96 Ba 5.7096 -2.0472 5.4155 0
M  V30 97 Ba 1.2089 -2.4191 7.8377 0
M  V30 98 Ga 0.3300 -2.7197 6.6835 0
M  V30 99 Ba -0.6234 -3.1543 5.6364 0
M  V30 END ATOM
M  V30 BEGIN BOND
M  V30 1 1 1 2
M  V30 2 1 1 3
M  V30 3 1 1 4
M  V30 4 1 1 5
M  V30 5 1 6 7
M  V30 6 1 6 8
M  V30 7 1 6 9
M  V30 8 1 6 10
M  V30 9 1 11 12
M  V30 10 1 11 13
M  V30 11 1 11 14
M  V30 12 1 11 15
M  V30 13 1 16 17
M  V30 14 1 16 18
M  V30 15 1 16 19
M  V30 16 1 16 20
M  V30 17 1 21 22
M  V30 18 1 21 23
M  V30 19 1 21 24
M  V30 20 1 21 25
M  V30 21 1 26 27
M  V30 22 1 26 28
M  V30 23 1 26 29
M  V30 24 1 26 30
M  V30 25 1 31 32
M  V30 26 1 31 33
M  V30 27 1 31 34
M  V30 28 1 31 35
M  V30 29 1 36 37
M  V30 30 1 36 38
M  V30 31 1 36 39
M  V30 32 1 36 40
M  V30 33 1 41 42
M  V30 34 1 41 43
M  V30 35 1 41 44
M  V30 36 1 41 45
M  V30 37 1 46 47
M  V30 38 1 47 48
M  V30 39 1 49 50
M  V30 40 1 50 51
M  V30 41 1 52 53
M  V30 42 1 53 54
M  V30 43 1 55 56
M  V30 44 1 56 57
M  V30 45 1 58 59
M  V30 46 1 59 60
M  V30 47 1 61 62
M  V30 48 1 62 63
M  V30 49 1 64 65
M  V30 50 1 65 66
M  V30 51 1 67 68
M  V30 52 1 68 69
M  V30 53 1 70 71
M  V30 54 1 71 72
M  V30 55 1 73 74
M  V30 56 1 74 75
M  V30 57 1 76 77
M  V30 58 1 77 78
M  V30 59 1 79 80
M  V30 60 1 80 81
M  V30 61 1 82 83
M  V30 62 1 83 84
M  V30 63 1 85 86
M  V30 64 1 86 87
M  V30 65 1 88 89
M  V30 66 1 89 90
M  V30 67 1 91 92
M  V30 68 1 92 93
M  V30 69 1 94 95
M  V30 70 1 95 96
M  V30 71 1 97 98
M  V30 72 1 98 99
M  V30 73 1 2 76
M  V30 74 1 3 55
M  V30 75 1 4 64
M  V30 76 1 5 67
M  V30 77 1 7 70
M  V30 78 1 8 66
M  V30 79 1 9 57
M  V30 80 1 10 52
M  V30 81 1 12 85
M  V30 82 1 13 79
M  V30 83 1 14 46
M  V30 84 1 15 73
M  V30 85 1 17 94
M  V30 86 1 18 97
M  V30 87 1 19 61
M  V30 88 1 20 48
M  V30 89 1 22 91
M  V30 90 1 23 82
M  V30 91 1 24 75
M  V30 92 1 25 78
M  V30 93 1 27 72
M  V30 94 1 28 88
M  V30 95 1 29 54
M  V30 96 1 30 84
M  V30 97 1 32 93
M  V30 98 1 33 58
M  V30 99 1 34 87
M  V30 100 1 35 99
M  V30 101 1 37 49
M  V30 102 1 38 81
M  V30 103 1 39 69
M  V30 104 1 40 90
M  V30 105 1 42 63
M  V30 106 1 43 96
M  V30 107 1 44 60
M  V30 108 1 45 51
M  V30 END BOND
M  V30 END CTAB
M  END

$$$$
