
     RDKit          3D

  0  0  0  0  0  0  0  0  0  0999 V3000
M  V30 BEGIN CTAB
M  V30 COUNTS 99 108 0 0 0
M  V30 BEGIN ATOM
M  V30 1 Pd -0.0692 -1.2200 4.4868 0
M  V30 2 Pb -0.2735 -1.8517 3.7347 0
M  V30 3 Pb 0.4933 -1.9135 4.9386 0
M  V30 4 Pb -0.6102 -0.4873 4.0772 0
M  V30 5 Pb 0.1619 -0.5661 5.2048 0
M  V30 6 Pd 5.7619 -3.1704 0.1065 0
M  V30 7 Pb 4.8072 -3.0595 -0.1579 0
M  V30 8 Pb 6.6574 -3.1892 0.5414 0
M  V30 9 Pb 5.9126 -2.2191 -0.1491 0
M  V30 10 Pb 5.5659 -4.0614 0.5108 0
M  V30 11 Pd -2.2445 -1.5111 -6.7634 0
M  V30 12 Pb -3.1866 -1.7466 -6.9807 0
M  V30 13 Pb -1.3271 -1.2270 -6.4983 0
M  V30 14 Pb -2.3188 -0.6225 -7.2146 0
M  V30 15 Pb -2.1850 -2.3475 -6.1890 0
M  V30 16 Pd -3.1242 5.0719 -3.9680 0
M  V30 17 Pb -2.8625 4.7393 -4.8745 0
M  V30 18 Pb -4.0759 4.9162 -4.2142 0
M  V30 19 Pb -2.1695 5.2426 -3.7076 0
M  V30 20 Pb -3.4326 5.3115 -3.0326 0
M  V30 21 Pd 1.0056 2.4862 -1.3444 0
M  V30 22 Pb 1.1062 1.5448 -1.0254 0
M  V30 23 Pb 1.1593 2.1100 -2.2552 0
M  V30 24 Pb 0.8630 3.4005 -1.7294 0
M  V30 25 Pb 0.8812 2.8453 -0.4157 0
M  V30 26 Pd -5.7573 2.7907 0.6405 0
M  V30 27 Pb -6.5100 2.8659 -0.0060 0
M  V30 28 Pb -6.0665 1.8821 0.9178 0
M  V30 29 Pb -4.9671 2.7053 1.2431 0
M  V30 30 Pb -5.3792 3.6618 0.2841 0
M  V30 31 Pd -4.1260 -3.7931 -1.7691 0
M  V30 32 Pb -3.3539 -3.8388 -1.1311 0
M  V30 33 Pb -4.7166 -3.4847 -1.0247 0
M  V30 34 Pb -3.5235 -3.9943 -2.5620 0
M  V30 35 Pb -4.8967 -3.7618 -2.3982 0
M  V30 36 Pd 3.3298 2.2282 3.8257 0
M  V30 37 Pb 2.5961 2.6820 3.3120 0
M  V30 38 Pb 4.0396 1.7549 4.3558 0
M  V30 39 Pb 3.8966 2.1979 3.0040 0
M  V30 40 Pb 2.7519 2.1990 4.6395 0
M  V30 41 Pd 5.3036 -2.9483 4.6863 0
M  V30 42 Pb 6.2031 -2.8791 4.2503 0
M  V30 43 Pb 4.4109 -3.0678 5.1260 0
M  V30 44 Pb 5.4158 -2.0280 5.0706 0
M  V30 45 Pb 5.1913 -3.8383 4.2414 0
M  V30 46 Ag 4.0875 -2.8842 -0.2576 0
M  V30 47 Fe 2.5786 -1.0810 -0.5821 0
M  V30 48 Ag 1.1788 0.8089 -0.9023 0
M  V30 49 Ag -0.3927 -2.3280 3.1636 0
M  V30 50 Fe -1.6114 -3.0814 1.2653 0
M  V30 51 Ag -2.7857 -3.8862 -0.6399 0
M  V30 52 Ag -4.7996 4.7600 -4.2620 0
M  V30 53 Fe -6.3160 3.8614 -2.6976 0
M  V30 54 Ag -6.9355 2.9825 -0.6010 0
M  V30 55 Ag -3.8944 -1.9642 -6.9608 0
M  V30 56 Fe -5.1007 -2.8974 -5.1642 0
M  V30 57 Ag -5.3724 -3.6987 -2.9641 0
M  V30 58 Ag -2.3267 0.0910 -7.4446 0
M  V30 59 Fe -2.5125 2.3134 -6.6270 0
M  V30 60 Ag -2.7335 4.4128 -5.5380 0
M  V30 61 Ag 5.9590 -1.4774 -0.2145 0
M  V30 62 Fe 5.2190 0.4478 0.9548 0
M  V30 63 Ag 4.3061 2.1044 2.3848 0
M  V30 64 Ag -0.9810 0.1213 3.8468 0
M  V30 65 Fe -2.6977 1.3237 2.7339 0
M  V30 66 Ag -4.3535 2.6462 1.6657 0
M  V30 67 Ag -6.2368 1.1682 1.0675 0
M  V30 68 Fe -5.7839 -1.0618 0.3922 0
M  V30 69 Ag -5.1428 -3.1671 -0.4971 0
M  V30 70 Ag -0.6775 -0.9285 -6.2835 0
M  V30 71 Fe 0.3788 0.4106 -4.6360 0
M  V30 72 Ag 1.2772 1.7595 -2.9049 0
M  V30 73 Ba 0.7841 3.1376 0.2719 0
M  V30 74 Ga 1.4318 3.0554 1.5999 0
M  V30 75 Ba 2.0270 3.0233 2.9543 0
M  V30 76 Ba -1.4626 5.3994 -3.4968 0
M  V30 77 Ga -0.3668 4.7220 -2.7693 0
M  V30 78 Ba 0.7491 4.0735 -2.0461 0
M  V30 79 Ba -2.1322 -2.9729 -5.7494 0
M  V30 80 Ga -2.6369 -3.5103 -4.4483 0
M  V30 81 Ba -3.0797 -4.1440 -3.1682 0
M  V30 82 Ba 5.4149 -4.6650 0.9256 0
M  V30 83 Ga 5.2503 -4.6711 2.3904 0
M  V30 84 Ba 5.1225 -4.4732 3.8457 0
M  V30 85 Ba 7.2516 -3.1515 0.9902 0
M  V30 86 Ga 7.1618 -3.0109 2.4535 0
M  V30 87 Ba 6.8630 -2.8757 3.8898 0
M  V30 88 Ba -3.6835 5.4921 -2.3342 0
M  V30 89 Ga -4.3836 4.8556 -1.1796 0
M  V30 90 Ba -5.0782 4.3151 0.0260 0
M  V30 91 Ba 0.3504 -0.0286 5.6898 0
M  V30 92 Ga 1.3202 1.0677 5.5336 0
M  V30 93 Ba 2.3196 2.1089 5.2437 0
M  V30 94 Ba 4.5473 1.4094 4.7940 0
M  V30 95 Ga 5.0223 0.0293 5.0424 0
M  V30 96 Ba 5.5329 -1.3302 5.3303 0
M  V30 97 Ba 0.9147 -2.4088 5.3138 0
M  V30 98 Ga 2.3406 -2.7920 5.3590 0
M  V30 99 Ba 3.7510 -3.2202 5.4537 0
M  V30 END ATOM
M  V30 BEGIN BOND
M  V30 1 1 1 2
M  V30 2 1 1 3
M  V30 3 1 1 4
M  V30 4 1 1 5
M  V30 5 1 6 7
M  V30 6 1 6 8
M  V30 7 1 6 9
M  V30 8 1 6 10
M  V30 9 1 11 12
M  V30 10 1 11 13
M  V30 11 1 11 14
M  V30 12 1 11 15
M  V30 13 1 16 17
M  V30 14 1 16 18
M  V30 15 1 16 19
M  V30 16 1 16 20
M  V30 17 1 21 22
M  V30 18 1 21 23
M  V30 19 1 21 24
M  V30 20 1 21 25
M  V30 21 1 26 27
M  V30 22 1 26 28
M  V30 23 1 26 29
M  V30 24 1 26 30
M  V30 25 1 31 32
M  V30 26 1 31 33
M  V30 27 1 31 34
M  V30 28 1 31 35
M  V30 29 1 36 37
M  V30 30 1 36 38
M  V30 31 1 36 39
M  V30 32 1 36 40
M  V30 33 1 41 42
M  V30 34 1 41 43
M  V30 35 1 41 44
M  V30 36 1 41 45
M  V30 37 1 46 47
M  V30 38 1 47 48
M  V30 39 1 49 50
M  V30 40 1 50 51
M  V30 41 1 52 53
M  V30 42 1 53 54
M  V30 43 1 55 56
M  V30 44 1 56 57
M  V30 45 1 58 59
M  V30 46 1 59 60
M  V30 47 1 61 62
M  V30 48 1 62 63
M  V30 49 1 64 65
M  V30 50 1 65 66
M  V30 51 1 67 68
M  V30 52 1 68 69
M  V30 53 1 70 71
M  V30 54 1 71 72
M  V30 55 1 73 74
M  V30 56 1 74 75
M  V30 57 1 76 77
M  V30 58 1 77 78
M  V30 59 1 79 80
M  V30 60 1 80 81
M  V30 61 1 82 83
M  V30 62 1 83 84
M  V30 63 1 85 86
M  V30 64 1 86 87
M  V30 65 1 88 89
M  V30 66 1 89 90
M  V30 67 1 91 92
M  V30 68 1 92 93
M  V30 69 1 94 95
M  V30 70 1 95 96
M  V30 71 1 97 98
M  V30 72 1 98 99
M  V30 73 1 2 49
M  V30 74 1 3 97
M  V30 75 1 4 64
M  V30 76 1 5 91
M  V30 77 1 7 46
M  V30 78 1 8 85
M  V30 79 1 9 61
M  V30 80 1 10 82
M  V30 81 1 12 55
M  V30 82 1 13 70
M  V30 83 1 14 58
M  V30 84 1 15 79
M  V30 85 1 17 60
M  V30 86 1 18 52
M  V30 87 1 19 76
M  V30 88 1 20 88
M  V30 89 1 22 48
M  V30 90 1 23 72
M  V30 91 1 24 78
M  V30 92 1 25 73
M  V30 93 1 27 54
M  V30 94 1 28 67
M  V30 95 1 29 66
M  V30 96 1 30 90
M  V30 97 1 32 51
M  V30 98 1 33 69
M  V30 99 1 34 81
M  V30 100 1 35 57
M  V30 101 1 37 75
M  V30 102 1 38 94
M  V30 103 1 39 63
M  V30 104 1 40 93
M  V30 105 1 42 87
M  V30 106 1 43 99
M  V30 107 1 44 96
M  V30 108 1 45 84
M  V30 END BOND
M  V30 END CTAB
M  END

$$$$
