
     RDKit          3D

  0  0  0  0  0  0  0  0  0  0999 V3000
M  V30 BEGIN CTAB
M  V30 COUNTS 99 108 0 0 0
M  V30 BEGIN ATOM
M  V30 1 Pd -2.7894 0.3832 2.6298 0
M  V30 2 Pb -3.7206 0.6869 2.4170 0
M  V30 3 Pb -1.8662 0.0560 2.8331 0
M  V30 4 Pb -3.0783 -0.1142 3.4490 0
M  V30 5 Pb -2.4796 0.8980 1.8294 0
M  V30 6 Pd 6.4183 4.8586 1.2473 0
M  V30 7 Pb 6.6483 4.4370 0.3691 0
M  V30 8 Pb 6.1711 5.2242 2.1401 0
M  V30 9 Pb 6.0922 5.7085 0.8282 0
M  V30 10 Pb 6.6010 3.9888 1.7113 0
M  V30 11 Pd -3.3616 -2.1227 -5.1806 0
M  V30 12 Pb -4.1366 -2.6299 -4.8058 0
M  V30 13 Pb -2.5813 -1.6287 -5.5654 0
M  V30 14 Pb -2.8602 -2.9709 -5.3499 0
M  V30 15 Pb -3.8371 -1.2699 -4.9529 0
M  V30 16 Pd 1.5948 -5.9438 -1.5745 0
M  V30 17 Pb 1.2385 -6.0642 -2.4992 0
M  V30 18 Pb 1.8244 -5.7377 -0.6190 0
M  V30 19 Pb 2.3489 -5.3963 -1.9416 0
M  V30 20 Pb 0.8331 -6.4759 -1.2159 0
M  V30 21 Pd 3.9465 0.7238 -4.7195 0
M  V30 22 Pb 4.7583 1.0497 -4.2342 0
M  V30 23 Pb 3.1162 0.4524 -5.2081 0
M  V30 24 Pb 4.1630 -0.2269 -4.4906 0
M  V30 25 Pb 3.7142 1.6804 -4.8740 0
M  V30 26 Pd -2.8724 -4.7891 3.8519 0
M  V30 27 Pb -1.8681 -4.7787 3.8552 0
M  V30 28 Pb -3.8581 -4.7473 3.7100 0
M  V30 29 Pb -2.9566 -3.9739 4.4251 0
M  V30 30 Pb -2.8064 -5.5645 3.2308 0
M  V30 31 Pd -6.4524 -1.0460 -1.0937 0
M  V30 32 Pb -6.3950 -0.3067 -0.4191 0
M  V30 33 Pb -6.7108 -1.6676 -0.3561 0
M  V30 34 Pb -6.1586 -0.4443 -1.8398 0
M  V30 35 Pb -6.4871 -1.8023 -1.7457 0
M  V30 36 Pd 1.5496 6.0193 -0.3411 0
M  V30 37 Pb 1.8428 5.9466 -1.2916 0
M  V30 38 Pb 1.2108 6.0385 0.6014 0
M  V30 39 Pb 2.3425 6.6104 -0.1671 0
M  V30 40 Pb 0.8197 5.3612 -0.5252 0
M  V30 41 Pd 2.0040 1.8404 5.3038 0
M  V30 42 Pb 2.5115 2.6356 5.6215 0
M  V30 43 Pb 1.5306 1.0660 4.8828 0
M  V30 44 Pb 1.2269 2.4545 5.1967 0
M  V30 45 Pb 2.8807 1.3716 5.2025 0
M  V30 46 Ag 6.8195 4.0589 -0.2571 0
M  V30 47 Fe 6.1118 2.7088 -2.0799 0
M  V30 48 Ag 5.3414 1.3644 -3.8813 0
M  V30 49 Ag 3.5433 2.4064 -4.9012 0
M  V30 50 Fe 2.7995 4.2135 -3.5593 0
M  V30 51 Ag 2.0479 5.8346 -2.0012 0
M  V30 52 Ag 2.8972 -4.9904 -2.2572 0
M  V30 53 Fe 3.6223 -2.9649 -3.2680 0
M  V30 54 Ag 4.3226 -0.9290 -4.2752 0
M  V30 55 Ag 1.8640 -5.5769 0.1176 0
M  V30 56 Fe 0.4907 -5.1674 2.0200 0
M  V30 57 Ag -1.1232 -4.8007 3.7329 0
M  V30 58 Ag 6.6209 3.3529 2.1133 0
M  V30 59 Fe 5.2612 2.0852 3.5948 0
M  V30 60 Ag 3.5754 1.1736 5.0006 0
M  V30 61 Ag 5.9397 5.3925 2.8279 0
M  V30 62 Fe 4.4817 4.5136 4.4720 0
M  V30 63 Ag 2.9267 3.2443 5.7258 0
M  V30 64 Ag 0.2603 -6.8254 -0.8909 0
M  V30 65 Fe -1.2996 -6.6214 0.8797 0
M  V30 66 Ag -2.6940 -6.0956 2.7206 0
M  V30 67 Ag -2.4331 -3.5813 -5.4340 0
M  V30 68 Fe -0.7640 -4.9252 -4.4128 0
M  V30 69 Ag 0.8868 -6.0818 -3.1595 0
M  V30 70 Ag -2.2800 1.3089 1.2334 0
M  V30 71 Fe -0.9990 3.0667 0.2781 0
M  V30 72 Ag 0.3012 4.8312 -0.6380 0
M  V30 73 Ag 0.8796 5.9485 1.2710 0
M  V30 74 Fe 0.6962 4.5827 3.2062 0
M  V30 75 Ag 0.7935 3.0319 5.0028 0
M  V30 76 Ag -4.5699 -4.6412 3.5122 0
M  V30 77 Fe -5.8571 -3.4473 1.9181 0
M  V30 78 Ag -6.8512 -2.1375 0.2090 0
M  V30 79 Ag -1.9779 -1.3042 -5.8718 0
M  V30 80 Fe 0.2532 -0.5050 -5.7029 0
M  V30 81 Ag 2.4829 0.3071 -5.5847 0
M  V30 82 Ba -4.4035 0.9336 2.2192 0
M  V30 83 Ga -5.3811 0.5753 1.1692 0
M  V30 84 Ba -6.3592 0.2177 0.1195 0
M  V30 85 Ba -4.2003 -0.6447 -4.7435 0
M  V30 86 Ga -5.0653 -0.3145 -3.5901 0
M  V30 87 Ba -5.9249 -0.0274 -2.4213 0
M  V30 88 Ba -4.7275 -2.9890 -4.5176 0
M  V30 89 Ga -5.6220 -2.7007 -3.3825 0
M  V30 90 Ba -6.4876 -2.3674 -2.2374 0
M  V30 91 Ba 5.7751 6.3467 0.5846 0
M  V30 92 Ga 4.3805 6.7012 0.2345 0
M  V30 93 Ba 2.9748 7.0181 -0.1076 0
M  V30 94 Ba -3.2209 -0.4936 4.0816 0
M  V30 95 Ga -3.1589 -1.9182 4.4646 0
M  V30 96 Ba -3.0900 -3.3496 4.8200 0
M  V30 97 Ba -1.2034 -0.2417 3.0209 0
M  V30 98 Ga -0.0002 0.1544 3.7781 0
M  V30 99 Ba 1.2327 0.4792 4.5216 0
M  V30 END ATOM
M  V30 BEGIN BOND
M  V30 1 1 1 2
M  V30 2 1 1 3
M  V30 3 1 1 4
M  V30 4 1 1 5
M  V30 5 1 6 7
M  V30 6 1 6 8
M  V30 7 1 6 9
M  V30 8 1 6 10
M  V30 9 1 11 12
M  V30 10 1 11 13
M  V30 11 1 11 14
M  V30 12 1 11 15
M  V30 13 1 16 17
M  V30 14 1 16 18
M  V30 15 1 16 19
M  V30 16 1 16 20
M  V30 17 1 21 22
M  V30 18 1 21 23
M  V30 19 1 21 24
M  V30 20 1 21 25
M  V30 21 1 26 27
M  V30 22 1 26 28
M  V30 23 1 26 29
M  V30 24 1 26 30
M  V30 25 1 31 32
M  V30 26 1 31 33
M  V30 27 1 31 34
M  V30 28 1 31 35
M  V30 29 1 36 37
M  V30 30 1 36 38
M  V30 31 1 36 39
M  V30 32 1 36 40
M  V30 33 1 41 42
M  V30 34 1 41 43
M  V30 35 1 41 44
M  V30 36 1 41 45
M  V30 37 1 46 47
M  V30 38 1 47 48
M  V30 39 1 49 50
M  V30 40 1 50 51
M  V30 41 1 52 53
M  V30 42 1 53 54
M  V30 43 1 55 56
M  V30 44 1 56 57
M  V30 45 1 58 59
M  V30 46 1 59 60
M  V30 47 1 61 62
M  V30 48 1 62 63
M  V30 49 1 64 65
M  V30 50 1 65 66
M  V30 51 1 67 68
M  V30 52 1 68 69
M  V30 53 1 70 71
M  V30 54 1 71 72
M  V30 55 1 73 74
M  V30 56 1 74 75
M  V30 57 1 76 77
M  V30 58 1 77 78
M  V30 59 1 79 80
M  V30 60 1 80 81
M  V30 61 1 82 83
M  V30 62 1 83 84
M  V30 63 1 85 86
M  V30 64 1 86 87
M  V30 65 1 88 89
M  V30 66 1 89 90
M  V30 67 1 91 92
M  V30 68 1 92 93
M  V30 69 1 94 95
M  V30 70 1 95 96
M  V30 71 1 97 98
M  V30 72 1 98 99
M  V30 73 1 2 82
M  V30 74 1 3 97
M  V30 75 1 4 94
M  V30 76 1 5 70
M  V30 77 1 7 46
M  V30 78 1 8 61
M  V30 79 1 9 91
M  V30 80 1 10 58
M  V30 81 1 12 88
M  V30 82 1 13 79
M  V30 83 1 14 67
M  V30 84 1 15 85
M  V30 85 1 17 69
M  V30 86 1 18 55
M  V30 87 1 19 52
M  V30 88 1 20 64
M  V30 89 1 22 48
M  V30 90 1 23 81
M  V30 91 1 24 54
M  V30 92 1 25 49
M  V30 93 1 27 57
M  V30 94 1 28 76
M  V30 95 1 29 96
M  V30 96 1 30 66
M  V30 97 1 32 84
M  V30 98 1 33 78
M  V30 99 1 34 87
M  V30 100 1 35 90
M  V30 101 1 37 51
M  V30 102 1 38 73
M  V30 103 1 39 93
M  V30 104 1 40 72
M  V30 105 1 42 63
M  V30 106 1 43 99
M  V30 107 1 44 75
M  V30 108 1 45 60
M  V30 END BOND
M  V30 END CTAB
M  END

$$$$
