
     RDKit          3D

  0  0  0  0  0  0  0  0  0  0999 V3000
M  V30 BEGIN CTAB
M  V30 COUNTS 99 108 0 0 0
M  V30 BEGIN ATOM
M  V30 1 Pd 6.3206 5.8765 -2.8826 0
M  V30 2 Pb 5.7490 6.3183 -2.1720 0
M  V30 3 Pb 6.8317 5.2961 -3.5129 0
M  V30 4 Pb 7.0781 5.8456 -2.2378 0
M  V30 5 Pb 5.5470 5.8404 -3.5144 0
M  V30 6 Pd -2.4658 -7.1360 1.2360 0
M  V30 7 Pb -3.3776 -7.4617 1.4611 0
M  V30 8 Pb -2.3793 -6.7800 2.1839 0
M  V30 9 Pb -1.5498 -6.8133 0.9821 0
M  V30 10 Pb -2.6029 -7.4128 0.2885 0
M  V30 11 Pd -3.2052 2.1834 -1.4716 0
M  V30 12 Pb -4.0692 2.4266 -1.0245 0
M  V30 13 Pb -3.6644 1.5154 -2.0548 0
M  V30 14 Pb -2.7020 2.8190 -0.8851 0
M  V30 15 Pb -2.3526 1.8732 -1.8964 0
M  V30 16 Pd -1.1588 -4.3150 -2.7783 0
M  V30 17 Pb -1.6712 -5.1723 -2.7496 0
M  V30 18 Pb -0.6308 -3.4660 -2.8682 0
M  V30 19 Pb -1.9018 -3.8531 -3.2581 0
M  V30 20 Pb -0.4847 -4.7282 -2.1652 0
M  V30 21 Pd 3.5670 4.3390 1.8331 0
M  V30 22 Pb 2.5852 4.4052 1.6441 0
M  V30 23 Pb 4.5366 4.3117 2.0558 0
M  V30 24 Pb 3.4504 3.4514 2.2781 0
M  V30 25 Pb 3.7367 5.1737 1.2820 0
M  V30 26 Pd 2.1089 -0.2532 -0.2845 0
M  V30 27 Pb 1.3104 0.2806 -0.0165 0
M  V30 28 Pb 2.9472 -0.6873 -0.6130 0
M  V30 29 Pb 2.5103 -0.0202 0.6031 0
M  V30 30 Pb 1.6791 -0.4975 -1.1546 0
M  V30 31 Pd -4.6607 1.2406 3.3217 0
M  V30 32 Pb -5.2540 1.6570 2.6330 0
M  V30 33 Pb -4.0370 0.8237 3.9804 0
M  V30 34 Pb -5.4279 0.8469 3.8309 0
M  V30 35 Pb -3.8842 1.5796 2.7987 0
M  V30 36 Pd 4.3277 1.6192 -4.1871 0
M  V30 37 Pb 4.0072 2.4855 -4.5695 0
M  V30 38 Pb 3.3849 1.3445 -3.9937 0
M  V30 39 Pb 4.6495 0.7859 -3.7331 0
M  V30 40 Pb 5.2631 1.9033 -4.4061 0
M  V30 41 Pd -4.8231 -3.4862 5.2261 0
M  V30 42 Pb -4.1279 -2.7958 5.4139 0
M  V30 43 Pb -5.5183 -4.1708 5.0363 0
M  V30 44 Pb -5.5249 -2.7785 5.3302 0
M  V30 45 Pb -4.1024 -4.1797 5.0400 0
M  V30 46 Ag 7.5129 5.7407 -1.6479 0
M  V30 47 Fe 6.8743 5.0274 0.5030 0
M  V30 48 Ag 5.2749 4.3650 2.0995 0
M  V30 49 Ag 0.7553 0.7401 0.1820 0
M  V30 50 Fe -1.2775 1.2571 1.2880 0
M  V30 51 Ag -3.3089 1.8053 2.3813 0
M  V30 52 Ag -1.7556 1.5606 -2.2297 0
M  V30 53 Fe 0.4833 1.4272 -3.0150 0
M  V30 54 Ag 2.6809 1.1180 -3.8652 0
M  V30 55 Ag -3.9051 0.9625 -2.4980 0
M  V30 56 Fe -3.3424 -1.2494 -3.1446 0
M  V30 57 Ag -2.4559 -3.4190 -3.5099 0
M  V30 58 Ag -4.0633 -7.5925 1.7084 0
M  V30 59 Fe -5.4182 -6.4447 3.2557 0
M  V30 60 Ag -5.9260 -4.7421 4.8016 0
M  V30 61 Ag -2.3054 3.2791 -0.4442 0
M  V30 62 Fe -0.2198 3.8710 0.5295 0
M  V30 63 Ag 1.8485 4.4927 1.5212 0
M  V30 64 Ba 7.1515 4.7745 -3.9433 0
M  V30 65 Ga 6.6051 3.4530 -4.3046 0
M  V30 66 Ba 5.9430 2.1662 -4.5906 0
M  V30 67 Ba 3.4131 2.7561 2.5570 0
M  V30 68 Ga 3.0844 1.4546 1.9419 0
M  V30 69 Ba 2.7491 0.1731 1.2894 0
M  V30 70 Ba -3.5747 0.4865 4.4624 0
M  V30 71 Ga -3.5650 -0.8726 5.0266 0
M  V30 72 Ba -3.6340 -2.2495 5.5410 0
M  V30 73 Ba -2.7128 -7.5516 -0.4367 0
M  V30 74 Ga -2.3867 -6.7265 -1.6109 0
M  V30 75 Ba -2.0225 -5.8335 -2.7226 0
M  V30 76 Ba -0.2722 -2.8196 -3.0159 0
M  V30 77 Ga 0.5486 -1.7766 -2.3659 0
M  V30 78 Ba 1.3740 -0.6810 -1.8155 0
M  V30 79 Ba -0.8711 -6.5885 0.7424 0
M  V30 80 Ga -0.4191 -5.8184 -0.4367 0
M  V30 81 Ba -0.0493 -5.0397 -1.6385 0
M  V30 82 Ba -4.7182 2.5738 -0.6726 0
M  V30 83 Ga -5.2118 2.2972 0.6922 0
M  V30 84 Ba -5.6310 1.9861 2.0742 0
M  V30 85 Ba -5.9644 0.5050 4.2313 0
M  V30 86 Ga -6.0344 -0.8510 4.8151 0
M  V30 87 Ba -6.0297 -2.2220 5.3675 0
M  V30 88 Ba -2.3181 -6.5247 2.9037 0
M  V30 89 Ga -2.9798 -5.5871 3.8626 0
M  V30 90 Ba -3.5427 -4.6897 4.9180 0
M  V30 91 Ba 5.3153 6.6232 -1.6220 0
M  V30 92 Ga 4.6061 6.1714 -0.3876 0
M  V30 93 Ba 3.8721 5.7953 0.8576 0
M  V30 94 Ba 4.9777 5.7414 -3.9917 0
M  V30 95 Ga 4.3445 4.4888 -4.4427 0
M  V30 96 Ba 3.8040 3.1667 -4.8078 0
M  V30 97 Ba 3.5667 -0.9534 -0.9414 0
M  V30 98 Ga 4.2605 -0.4387 -2.1390 0
M  V30 99 Ba 4.8558 0.1774 -3.3419 0
M  V30 END ATOM
M  V30 BEGIN BOND
M  V30 1 1 1 2
M  V30 2 1 1 3
M  V30 3 1 1 4
M  V30 4 1 1 5
M  V30 5 1 6 7
M  V30 6 1 6 8
M  V30 7 1 6 9
M  V30 8 1 6 10
M  V30 9 1 11 12
M  V30 10 1 11 13
M  V30 11 1 11 14
M  V30 12 1 11 15
M  V30 13 1 16 17
M  V30 14 1 16 18
M  V30 15 1 16 19
M  V30 16 1 16 20
M  V30 17 1 21 22
M  V30 18 1 21 23
M  V30 19 1 21 24
M  V30 20 1 21 25
M  V30 21 1 26 27
M  V30 22 1 26 28
M  V30 23 1 26 29
M  V30 24 1 26 30
M  V30 25 1 31 32
M  V30 26 1 31 33
M  V30 27 1 31 34
M  V30 28 1 31 35
M  V30 29 1 36 37
M  V30 30 1 36 38
M  V30 31 1 36 39
M  V30 32 1 36 40
M  V30 33 1 41 42
M  V30 34 1 41 43
M  V30 35 1 41 44
M  V30 36 1 41 45
M  V30 37 1 46 47
M  V30 38 1 47 48
M  V30 39 1 49 50
M  V30 40 1 50 51
M  V30 41 1 52 53
M  V30 42 1 53 54
M  V30 43 1 55 56
M  V30 44 1 56 57
M  V30 45 1 58 59
M  V30 46 1 59 60
M  V30 47 1 61 62
M  V30 48 1 62 63
M  V30 49 1 64 65
M  V30 50 1 65 66
M  V30 51 1 67 68
M  V30 52 1 68 69
M  V30 53 1 70 71
M  V30 54 1 71 72
M  V30 55 1 73 74
M  V30 56 1 74 75
M  V30 57 1 76 77
M  V30 58 1 77 78
M  V30 59 1 79 80
M  V30 60 1 80 81
M  V30 61 1 82 83
M  V30 62 1 83 84
M  V30 63 1 85 86
M  V30 64 1 86 87
M  V30 65 1 88 89
M  V30 66 1 89 90
M  V30 67 1 91 92
M  V30 68 1 92 93
M  V30 69 1 94 95
M  V30 70 1 95 96
M  V30 71 1 97 98
M  V30 72 1 98 99
M  V30 73 1 2 91
M  V30 74 1 3 64
M  V30 75 1 4 46
M  V30 76 1 5 94
M  V30 77 1 7 58
M  V30 78 1 8 88
M  V30 79 1 9 79
M  V30 80 1 10 73
M  V30 81 1 12 82
M  V30 82 1 13 55
M  V30 83 1 14 61
M  V30 84 1 15 52
M  V30 85 1 17 75
M  V30 86 1 18 76
M  V30 87 1 19 57
M  V30 88 1 20 81
M  V30 89 1 22 63
M  V30 90 1 23 48
M  V30 91 1 24 67
M  V30 92 1 25 93
M  V30 93 1 27 49
M  V30 94 1 28 97
M  V30 95 1 29 69
M  V30 96 1 30 78
M  V30 97 1 32 84
M  V30 98 1 33 70
M  V30 99 1 34 85
M  V30 100 1 35 51
M  V30 101 1 37 96
M  V30 102 1 38 54
M  V30 103 1 39 99
M  V30 104 1 40 66
M  V30 105 1 42 72
M  V30 106 1 43 60
M  V30 107 1 44 87
M  V30 108 1 45 90
M  V30 END BOND
M  V30 END CTAB
M  END

$$$$
