
     RDKit          3D

  0  0  0  0  0  0  0  0  0  0999 V3000
M  V30 BEGIN CTAB
M  V30 COUNTS 99 108 0 0 0
M  V30 BEGIN ATOM
M  V30 1 Pd -6.1146 -3.9101 -0.8685 0
M  V30 2 Pb -6.1188 -3.3496 -0.0391 0
M  V30 3 Pb -7.0996 -3.7779 -0.9681 0
M  V30 4 Pb -6.1258 -4.4332 -1.7223 0
M  V30 5 Pb -5.1215 -4.0062 -0.8174 0
M  V30 6 Pd -7.7367 -1.9747 -4.8659 0
M  V30 7 Pb -7.0174 -1.6903 -5.4992 0
M  V30 8 Pb -7.4556 -2.9293 -4.9419 0
M  V30 9 Pb -8.4018 -2.2490 -4.1734 0
M  V30 10 Pb -7.9249 -1.0149 -4.6739 0
M  V30 11 Pd 3.8924 -2.5306 3.9553 0
M  V30 12 Pb 3.5766 -2.0099 4.7426 0
M  V30 13 Pb 4.1215 -2.9925 3.1026 0
M  V30 14 Pb 4.8224 -2.1652 4.0310 0
M  V30 15 Pb 2.9583 -2.8718 3.8653 0
M  V30 16 Pd 7.1149 2.3496 3.9710 0
M  V30 17 Pb 7.6250 2.3163 3.0871 0
M  V30 18 Pb 6.4902 2.4706 4.7430 0
M  V30 19 Pb 7.2691 3.3298 4.0166 0
M  V30 20 Pb 7.0494 1.3474 3.9960 0
M  V30 21 Pd -2.7480 -0.3089 1.4800 0
M  V30 22 Pb -1.8119 -0.0059 1.3033 0
M  V30 23 Pb -3.0972 0.5088 1.0188 0
M  V30 24 Pb -2.3649 -1.1132 1.9294 0
M  V30 25 Pb -3.6743 -0.6401 1.6621 0
M  V30 26 Pd -4.0414 1.2300 -3.6692 0
M  V30 27 Pb -4.1591 0.7765 -4.5535 0
M  V30 28 Pb -3.0464 1.1595 -3.7681 0
M  V30 29 Pb -5.0333 1.3614 -3.6320 0
M  V30 30 Pb -3.9543 1.6617 -2.7697 0
M  V30 31 Pd 1.9974 2.2905 3.7577 0
M  V30 32 Pb 1.5185 1.7844 3.0365 0
M  V30 33 Pb 2.0611 3.0349 3.0885 0
M  V30 34 Pb 1.9465 1.5488 4.4267 0
M  V30 35 Pb 2.5769 2.7335 4.4439 0
M  V30 36 Pd 1.2082 -1.4593 -2.6603 0
M  V30 37 Pb 2.0115 -0.9365 -2.9459 0
M  V30 38 Pb 1.8268 -2.1074 -2.2195 0
M  V30 39 Pb 0.4390 -2.0034 -2.3219 0
M  V30 40 Pb 0.6214 -0.7717 -3.0945 0
M  V30 41 Pd 6.3781 4.1968 -1.2143 0
M  V30 42 Pb 6.6833 5.0265 -0.7600 0
M  V30 43 Pb 7.1545 3.6868 -0.8068 0
M  V30 44 Pb 5.4797 4.6155 -1.3007 0
M  V30 45 Pb 6.0657 3.3947 -1.7248 0
M  V30 46 Ag 2.6394 -0.5672 -3.1254 0
M  V30 47 Fe 4.2257 1.1308 -2.6313 0
M  V30 48 Ag 5.8190 2.8250 -2.1470 0
M  V30 49 Ag 2.0864 3.5292 2.5206 0
M  V30 50 Fe 3.2912 4.3240 0.6335 0
M  V30 51 Ag 4.7935 4.8524 -1.1284 0
M  V30 52 Ag 7.3859 4.0551 3.9348 0
M  V30 53 Fe 7.2945 5.3948 2.0086 0
M  V30 54 Ag 6.8934 5.5632 -0.2983 0
M  V30 55 Ag -4.3750 -4.0682 -0.8076 0
M  V30 56 Fe -2.2476 -3.2191 -1.4374 0
M  V30 57 Ag -0.0715 -2.4607 -2.0138 0
M  V30 58 Ag 2.2450 -3.0861 3.7925 0
M  V30 59 Fe 0.0745 -2.4775 3.0524 0
M  V30 60 Ag -2.0161 -1.6894 2.2541 0
M  V30 61 Ag 4.1929 -3.2854 2.4200 0
M  V30 62 Fe 3.3356 -3.0342 0.2232 0
M  V30 63 Ag 2.3080 -2.5534 -1.8595 0
M  V30 64 Ba 5.5298 -1.9139 4.0730 0
M  V30 65 Ga 6.2527 -0.6236 4.0499 0
M  V30 66 Ba 7.0908 0.5951 4.0391 0
M  V30 67 Ba -7.9837 -0.2986 -4.4707 0
M  V30 68 Ga -6.9145 0.6262 -4.0545 0
M  V30 69 Ba -5.7761 1.4723 -3.6539 0
M  V30 70 Ba -7.8233 -3.6555 -1.1151 0
M  V30 71 Ga -8.4167 -3.0718 -2.3294 0
M  V30 72 Ba -8.8365 -2.4727 -3.6069 0
M  V30 73 Ba -6.1697 -4.7818 -2.3864 0
M  V30 74 Ga -6.6729 -4.2848 -3.6803 0
M  V30 75 Ba -7.2072 -3.6329 -4.8898 0
M  V30 76 Ba -3.3223 1.1378 0.6742 0
M  V30 77 Ga -3.6223 1.5459 -0.7135 0
M  V30 78 Ba -3.9285 1.9835 -2.0909 0
M  V30 79 Ba -6.4515 -1.4456 -5.9257 0
M  V30 80 Ga -5.3492 -0.5169 -5.6115 0
M  V30 81 Ba -4.2865 0.4210 -5.2022 0
M  V30 82 Ba 3.2426 -1.6001 5.2687 0
M  V30 83 Ga 2.6027 -0.2780 5.1593 0
M  V30 84 Ba 1.9785 1.0445 4.9822 0
M  V30 85 Ba -2.3078 1.1585 -3.9105 0
M  V30 86 Ga -1.0650 0.4129 -3.6208 0
M  V30 87 Ba 0.2648 -0.2065 -3.4409 0
M  V30 88 Ba -1.1007 0.1815 1.1588 0
M  V30 89 Ga 0.0340 0.8251 1.8514 0
M  V30 90 Ba 1.2469 1.4449 2.4216 0
M  V30 91 Ba -6.1410 -2.9102 0.5697 0
M  V30 92 Ga -5.2456 -1.9119 1.1865 0
M  V30 93 Ba -4.3578 -0.9120 1.8116 0
M  V30 94 Ba 7.9952 2.3132 2.4101 0
M  V30 95 Ga 7.8139 2.8158 1.0075 0
M  V30 96 Ba 7.6812 3.2961 -0.4084 0
M  V30 97 Ba 5.9772 2.6732 5.2538 0
M  V30 98 Ga 4.5087 2.8213 5.1608 0
M  V30 99 Ba 3.0441 2.9424 4.9956 0
M  V30 END ATOM
M  V30 BEGIN BOND
M  V30 1 1 1 2
M  V30 2 1 1 3
M  V30 3 1 1 4
M  V30 4 1 1 5
M  V30 5 1 6 7
M  V30 6 1 6 8
M  V30 7 1 6 9
M  V30 8 1 6 10
M  V30 9 1 11 12
M  V30 10 1 11 13
M  V30 11 1 11 14
M  V30 12 1 11 15
M  V30 13 1 16 17
M  V30 14 1 16 18
M  V30 15 1 16 19
M  V30 16 1 16 20
M  V30 17 1 21 22
M  V30 18 1 21 23
M  V30 19 1 21 24
M  V30 20 1 21 25
M  V30 21 1 26 27
M  V30 22 1 26 28
M  V30 23 1 26 29
M  V30 24 1 26 30
M  V30 25 1 31 32
M  V30 26 1 31 33
M  V30 27 1 31 34
M  V30 28 1 31 35
M  V30 29 1 36 37
M  V30 30 1 36 38
M  V30 31 1 36 39
M  V30 32 1 36 40
M  V30 33 1 41 42
M  V30 34 1 41 43
M  V30 35 1 41 44
M  V30 36 1 41 45
M  V30 37 1 46 47
M  V30 38 1 47 48
M  V30 39 1 49 50
M  V30 40 1 50 51
M  V30 41 1 52 53
M  V30 42 1 53 54
M  V30 43 1 55 56
M  V30 44 1 56 57
M  V30 45 1 58 59
M  V30 46 1 59 60
M  V30 47 1 61 62
M  V30 48 1 62 63
M  V30 49 1 64 65
M  V30 50 1 65 66
M  V30 51 1 67 68
M  V30 52 1 68 69
M  V30 53 1 70 71
M  V30 54 1 71 72
M  V30 55 1 73 74
M  V30 56 1 74 75
M  V30 57 1 76 77
M  V30 58 1 77 78
M  V30 59 1 79 80
M  V30 60 1 80 81
M  V30 61 1 82 83
M  V30 62 1 83 84
M  V30 63 1 85 86
M  V30 64 1 86 87
M  V30 65 1 88 89
M  V30 66 1 89 90
M  V30 67 1 91 92
M  V30 68 1 92 93
M  V30 69 1 94 95
M  V30 70 1 95 96
M  V30 71 1 97 98
M  V30 72 1 98 99
M  V30 73 1 2 91
M  V30 74 1 3 70
M  V30 75 1 4 73
M  V30 76 1 5 55
M  V30 77 1 7 79
M  V30 78 1 8 75
M  V30 79 1 9 72
M  V30 80 1 10 67
M  V30 81 1 12 82
M  V30 82 1 13 61
M  V30 83 1 14 64
M  V30 84 1 15 58
M  V30 85 1 17 94
M  V30 86 1 18 97
M  V30 87 1 19 52
M  V30 88 1 20 66
M  V30 89 1 22 88
M  V30 90 1 23 76
M  V30 91 1 24 60
M  V30 92 1 25 93
M  V30 93 1 27 81
M  V30 94 1 28 85
M  V30 95 1 29 69
M  V30 96 1 30 78
M  V30 97 1 32 90
M  V30 98 1 33 49
M  V30 99 1 34 84
M  V30 100 1 35 99
M  V30 101 1 37 46
M  V30 102 1 38 63
M  V30 103 1 39 57
M  V30 104 1 40 87
M  V30 105 1 42 54
M  V30 106 1 43 96
M  V30 107 1 44 51
M  V30 108 1 45 48
M  V30 END BOND
M  V30 END CTAB
M  END

$$$$
