
     RDKit          3D

  0  0  0  0  0  0  0  0  0  0999 V3000
M  V30 BEGIN CTAB
M  V30 COUNTS 99 108 0 0 0
M  V30 BEGIN ATOM
M  V30 1 Pd -3.6469 0.8713 -1.1218 0
M  V30 2 Pb -4.2558 0.2249 -0.6648 0
M  V30 3 Pb -3.9643 0.5244 -2.0081 0
M  V30 4 Pb -3.2736 1.0918 -0.2198 0
M  V30 5 Pb -3.0005 1.4844 -1.5872 0
M  V30 6 Pd 4.5663 -2.3992 -4.2287 0
M  V30 7 Pb 5.1770 -3.1604 -4.0326 0
M  V30 8 Pb 3.9418 -1.6731 -4.4719 0
M  V30 9 Pb 5.3233 -1.7634 -4.1030 0
M  V30 10 Pb 3.7466 -3.0028 -4.1524 0
M  V30 11 Pd -0.5688 5.5438 -0.4339 0
M  V30 12 Pb -0.7143 4.8532 -1.1452 0
M  V30 13 Pb -0.3995 6.2088 0.3003 0
M  V30 14 Pb -1.5626 5.5754 -0.3376 0
M  V30 15 Pb 0.4231 5.4767 -0.5262 0
M  V30 16 Pd 3.7797 -5.5751 0.9095 0
M  V30 17 Pb 3.1512 -5.9170 0.1847 0
M  V30 18 Pb 4.4231 -5.1072 1.5174 0
M  V30 19 Pb 4.5169 -6.0858 0.4814 0
M  V30 20 Pb 3.1000 -4.9394 1.2478 0
M  V30 21 Pd -4.9525 2.8639 4.0809 0
M  V30 22 Pb -4.2865 2.3183 3.5715 0
M  V30 23 Pb -5.3570 3.1493 3.2189 0
M  V30 24 Pb -5.5071 3.5424 4.5576 0
M  V30 25 Pb -4.3616 2.7744 4.8928 0
M  V30 26 Pd -1.7183 -4.8077 -4.8313 0
M  V30 27 Pb -1.1735 -3.9979 -4.9894 0
M  V30 28 Pb -2.3414 -5.5549 -4.6384 0
M  V30 29 Pb -0.9608 -5.3152 -4.3804 0
M  V30 30 Pb -2.4824 -4.2150 -5.0873 0
M  V30 31 Pd 5.5448 1.5373 1.6080 0
M  V30 32 Pb 6.0786 1.3233 0.7899 0
M  V30 33 Pb 5.2577 2.3847 1.1656 0
M  V30 34 Pb 5.7843 0.6502 2.0129 0
M  V30 35 Pb 4.9702 1.7642 2.3971 0
M  V30 36 Pd -2.5960 -3.7886 -1.0135 0
M  V30 37 Pb -2.0357 -3.1725 -0.4796 0
M  V30 38 Pb -3.1539 -4.5087 -1.4200 0
M  V30 39 Pb -1.7758 -4.0406 -1.5711 0
M  V30 40 Pb -3.4010 -3.4684 -0.5188 0
M  V30 41 Pd -0.4497 5.5192 4.9795 0
M  V30 42 Pb -0.9281 4.8168 5.5296 0
M  V30 43 Pb -1.1877 6.1536 5.2001 0
M  V30 44 Pb -0.0918 6.1809 4.3188 0
M  V30 45 Pb 0.3195 4.8879 4.8441 0
M  V30 46 Ag -5.6873 4.1822 4.8843 0
M  V30 47 Fe -4.0674 5.8182 5.3779 0
M  V30 48 Ag -1.8142 6.5089 5.3884 0
M  V30 49 Ag 4.5218 1.9443 2.9736 0
M  V30 50 Fe 2.6990 3.1982 3.8477 0
M  V30 51 Ag 0.8937 4.3988 4.8263 0
M  V30 52 Ag -4.1636 0.1786 -2.6473 0
M  V30 53 Fe -3.7039 -1.7074 -4.0215 0
M  V30 54 Ag -2.9958 -3.6715 -5.1601 0
M  V30 55 Ag -2.3060 5.5021 -0.2836 0
M  V30 56 Fe -4.0656 4.5540 0.9911 0
M  V30 57 Ag -5.4768 3.4819 2.5645 0
M  V30 58 Ag 5.5805 -3.7508 -3.8275 0
M  V30 59 Fe 5.6433 -5.2824 -2.0322 0
M  V30 60 Ag 5.0485 -6.2976 0.0127 0
M  V30 61 Ag 4.8688 -4.6528 1.9175 0
M  V30 62 Fe 5.4723 -2.3672 2.1819 0
M  V30 63 Ag 5.9341 -0.0359 2.2874 0
M  V30 64 Ag 5.8459 -1.2910 -3.8559 0
M  V30 65 Fe 6.2873 0.0052 -1.9184 0
M  V30 66 Ag 6.4253 1.1744 0.1419 0
M  V30 67 Ag 3.1148 -3.4307 -4.0363 0
M  V30 68 Fe 0.9761 -3.7861 -3.0063 0
M  V30 69 Ag -1.1672 -4.2157 -2.0150 0
M  V30 70 Ag 3.3463 -1.2957 -4.6770 0
M  V30 71 Fe 1.1374 -2.0628 -4.9657 0
M  V30 72 Ag -0.8366 -3.3463 -5.0906 0
M  V30 73 Ag 2.6296 -4.3945 1.4218 0
M  V30 74 Fe 0.5559 -3.4162 0.8630 0
M  V30 75 Ag -1.5618 -2.8547 -0.0124 0
M  V30 76 Ag 1.1697 5.4298 -0.5476 0
M  V30 77 Fe 3.1227 4.2492 0.1023 0
M  V30 78 Ag 5.0076 2.9906 0.8049 0
M  V30 79 Ag 2.7364 -6.1590 -0.4156 0
M  V30 80 Fe 1.1410 -5.8829 -2.1809 0
M  V30 81 Ag -0.4377 -5.7029 -3.9734 0
M  V30 82 Ba -2.5080 1.9069 -1.9732 0
M  V30 83 Ga -1.6871 3.1248 -1.7927 0
M  V30 84 Ba -0.8431 4.3345 -1.6743 0
M  V30 85 Ba -2.9814 1.1496 0.4699 0
M  V30 86 Ga -3.3935 1.5834 1.8199 0
M  V30 87 Ba -3.7213 1.9909 3.2009 0
M  V30 88 Ba -0.1882 6.6950 0.8385 0
M  V30 89 Ga -0.0496 6.6859 2.3124 0
M  V30 90 Ba 0.0876 6.6808 3.7865 0
M  V30 91 Ba -2.8546 -6.0085 -4.3622 0
M  V30 92 Ga -3.3281 -5.6910 -3.0211 0
M  V30 93 Ba -3.5353 -5.0815 -1.7117 0
M  V30 94 Ba -4.6625 -0.3006 -0.3204 0
M  V30 95 Ga -4.4017 -1.7443 -0.2075 0
M  V30 96 Ba -3.9971 -3.1588 -0.1909 0
M  V30 97 Ba -3.8546 2.7750 5.4590 0
M  V30 98 Ga -2.5886 3.5288 5.6907 0
M  V30 99 Ba -1.3240 4.2881 5.9117 0
M  V30 END ATOM
M  V30 BEGIN BOND
M  V30 1 1 1 2
M  V30 2 1 1 3
M  V30 3 1 1 4
M  V30 4 1 1 5
M  V30 5 1 6 7
M  V30 6 1 6 8
M  V30 7 1 6 9
M  V30 8 1 6 10
M  V30 9 1 11 12
M  V30 10 1 11 13
M  V30 11 1 11 14
M  V30 12 1 11 15
M  V30 13 1 16 17
M  V30 14 1 16 18
M  V30 15 1 16 19
M  V30 16 1 16 20
M  V30 17 1 21 22
M  V30 18 1 21 23
M  V30 19 1 21 24
M  V30 20 1 21 25
M  V30 21 1 26 27
M  V30 22 1 26 28
M  V30 23 1 26 29
M  V30 24 1 26 30
M  V30 25 1 31 32
M  V30 26 1 31 33
M  V30 27 1 31 34
M  V30 28 1 31 35
M  V30 29 1 36 37
M  V30 30 1 36 38
M  V30 31 1 36 39
M  V30 32 1 36 40
M  V30 33 1 41 42
M  V30 34 1 41 43
M  V30 35 1 41 44
M  V30 36 1 41 45
M  V30 37 1 46 47
M  V30 38 1 47 48
M  V30 39 1 49 50
M  V30 40 1 50 51
M  V30 41 1 52 53
M  V30 42 1 53 54
M  V30 43 1 55 56
M  V30 44 1 56 57
M  V30 45 1 58 59
M  V30 46 1 59 60
M  V30 47 1 61 62
M  V30 48 1 62 63
M  V30 49 1 64 65
M  V30 50 1 65 66
M  V30 51 1 67 68
M  V30 52 1 68 69
M  V30 53 1 70 71
M  V30 54 1 71 72
M  V30 55 1 73 74
M  V30 56 1 74 75
M  V30 57 1 76 77
M  V30 58 1 77 78
M  V30 59 1 79 80
M  V30 60 1 80 81
M  V30 61 1 82 83
M  V30 62 1 83 84
M  V30 63 1 85 86
M  V30 64 1 86 87
M  V30 65 1 88 89
M  V30 66 1 89 90
M  V30 67 1 91 92
M  V30 68 1 92 93
M  V30 69 1 94 95
M  V30 70 1 95 96
M  V30 71 1 97 98
M  V30 72 1 98 99
M  V30 73 1 2 94
M  V30 74 1 3 52
M  V30 75 1 4 85
M  V30 76 1 5 82
M  V30 77 1 7 58
M  V30 78 1 8 70
M  V30 79 1 9 64
M  V30 80 1 10 67
M  V30 81 1 12 84
M  V30 82 1 13 88
M  V30 83 1 14 55
M  V30 84 1 15 76
M  V30 85 1 17 79
M  V30 86 1 18 61
M  V30 87 1 19 60
M  V30 88 1 20 73
M  V30 89 1 22 87
M  V30 90 1 23 57
M  V30 91 1 24 46
M  V30 92 1 25 97
M  V30 93 1 27 72
M  V30 94 1 28 91
M  V30 95 1 29 81
M  V30 96 1 30 54
M  V30 97 1 32 66
M  V30 98 1 33 78
M  V30 99 1 34 63
M  V30 100 1 35 49
M  V30 101 1 37 75
M  V30 102 1 38 93
M  V30 103 1 39 69
M  V30 104 1 40 96
M  V30 105 1 42 99
M  V30 106 1 43 48
M  V30 107 1 44 90
M  V30 108 1 45 51
M  V30 END BOND
M  V30 END CTAB
M  END

$$$$
