
     RDKit          3D

  0  0  0  0  0  0  0  0  0  0999 V3000
M  V30 BEGIN CTAB
M  V30 COUNTS 99 108 0 0 0
M  V30 BEGIN ATOM
M  V30 1 Pd 2.1645 8.5437 1.2256 0
M  V30 2 Pb 2.8500 7.8163 1.1882 0
M  V30 3 Pb 1.4779 9.2646 1.2763 0
M  V30 4 Pb 1.4182 7.9150 0.9796 0
M  V30 5 Pb 2.7749 9.1438 1.7450 0
M  V30 6 Pd 2.3480 -2.5074 1.4255 0
M  V30 7 Pb 1.5332 -2.6355 2.0099 0
M  V30 8 Pb 3.1184 -2.2194 0.8585 0
M  V30 9 Pb 2.9085 -2.4651 2.2476 0
M  V30 10 Pb 1.7525 -2.5083 0.6225 0
M  V30 11 Pd -3.1965 -4.9249 -4.4753 0
M  V30 12 Pb -3.0301 -4.4296 -3.6215 0
M  V30 13 Pb -2.5577 -4.3349 -4.9690 0
M  V30 14 Pb -3.6444 -5.6661 -3.9511 0
M  V30 15 Pb -3.3865 -5.4241 -5.3176 0
M  V30 16 Pd 1.1586 -5.5211 -3.1618 0
M  V30 17 Pb 1.0273 -5.0090 -4.0129 0
M  V30 18 Pb 1.1597 -6.0375 -2.3071 0
M  V30 19 Pb 0.8512 -4.6997 -2.6834 0
M  V30 20 Pb 1.4707 -6.3588 -3.6212 0
M  V30 21 Pd 2.6780 3.6914 -1.2680 0
M  V30 22 Pb 2.1311 3.1312 -1.8858 0
M  V30 23 Pb 3.4291 3.0428 -1.3799 0
M  V30 24 Pb 3.2272 4.2488 -0.6450 0
M  V30 25 Pb 1.8565 4.2253 -1.0609 0
M  V30 26 Pd -1.2640 8.1998 4.4492 0
M  V30 27 Pb -1.3990 7.6368 3.6258 0
M  V30 28 Pb -1.2630 7.3968 5.0451 0
M  V30 29 Pb -1.2516 8.9944 3.8474 0
M  V30 30 Pb -0.8468 8.7762 5.1536 0
M  V30 31 Pd -1.8168 1.5408 -0.2634 0
M  V30 32 Pb -1.5829 2.5169 -0.2220 0
M  V30 33 Pb -2.3421 1.5911 0.5884 0
M  V30 34 Pb -1.2989 1.4794 -1.1136 0
M  V30 35 Pb -2.0146 0.5619 -0.3210 0
M  V30 36 Pd -1.2283 -9.6279 -3.0656 0
M  V30 37 Pb -0.8379 -9.2634 -2.2206 0
M  V30 38 Pb -2.1408 -9.2590 -2.8358 0
M  V30 39 Pb -1.5904 -9.9479 -3.9382 0
M  V30 40 Pb -0.2988 -9.7406 -3.4088 0
M  V30 41 Pd -0.9463 0.5125 5.0626 0
M  V30 42 Pb -0.1347 0.2788 5.5906 0
M  V30 43 Pb -1.0151 1.3926 5.5319 0
M  V30 44 Pb -1.7337 0.7662 4.4982 0
M  V30 45 Pb -0.8546 -0.3769 4.5839 0
M  V30 46 Ag -1.2614 6.7892 5.4846 0
M  V30 47 Fe -1.1651 4.4259 5.6975 0
M  V30 48 Ag -1.0663 2.0595 5.8708 0
M  V30 49 Ag 3.6354 -1.8778 0.4384 0
M  V30 50 Fe 3.9892 0.2370 -0.5777 0
M  V30 51 Ag 3.8999 2.4615 -1.3981 0
M  V30 52 Ag 2.9912 9.5532 2.3319 0
M  V30 53 Fe 1.6646 9.7605 4.2808 0
M  V30 54 Ag -0.3200 9.2162 5.4495 0
M  V30 55 Ag 3.1791 -2.3460 2.9282 0
M  V30 56 Fe 2.2076 -1.2003 4.7462 0
M  V30 57 Ag 0.5220 0.0363 5.8381 0
M  V30 58 Ag -3.4781 -5.9321 -5.8511 0
M  V30 59 Fe -2.8740 -8.2059 -5.7932 0
M  V30 60 Ag -1.8951 -9.9908 -4.6130 0
M  V30 61 Ag -2.9302 -4.0759 -2.9667 0
M  V30 62 Fe -2.5354 -2.1152 -1.6843 0
M  V30 63 Ag -2.1419 -0.1760 -0.3695 0
M  V30 64 Ba 0.9049 -2.6985 2.4353 0
M  V30 65 Ga 0.0878 -1.8417 3.3419 0
M  V30 66 Ba -0.7941 -1.0666 4.2611 0
M  V30 67 Ba 0.7962 7.4828 0.9284 0
M  V30 68 Ga -0.3204 7.3305 1.9038 0
M  V30 69 Ba -1.3687 7.2702 2.9616 0
M  V30 70 Ba -1.9792 -4.0032 -5.3142 0
M  V30 71 Ga -0.5466 -4.2297 -5.0285 0
M  V30 72 Ba 0.8233 -4.5786 -4.5956 0
M  V30 73 Ba 0.9377 9.7723 1.3634 0
M  V30 74 Ga -0.1638 9.7536 2.3342 0
M  V30 75 Ba -1.1891 9.5628 3.3679 0
M  V30 76 Ba 3.3683 7.2745 1.1647 0
M  V30 77 Ga 3.4992 5.9691 0.4899 0
M  V30 78 Ba 3.6445 4.6618 -0.1779 0
M  V30 79 Ba -3.9135 -6.2595 -3.5528 0
M  V30 80 Ga -3.3662 -7.5849 -3.1343 0
M  V30 81 Ba -2.8079 -8.9077 -2.7218 0
M  V30 82 Ba 1.7023 2.7054 -2.3252 0
M  V30 83 Ga 0.4042 2.0599 -2.0788 0
M  V30 84 Ba -0.8919 1.4536 -1.7397 0
M  V30 85 Ba 1.7031 -7.0240 -3.8933 0
M  V30 86 Ga 1.1082 -8.3768 -3.8340 0
M  V30 87 Ba 0.3850 -9.6596 -3.7023 0
M  V30 88 Ba 1.2781 -2.4833 0.0425 0
M  V30 89 Ga 0.9671 -3.2964 -1.1471 0
M  V30 90 Ba 0.6152 -4.0715 -2.3507 0
M  V30 91 Ba 1.2024 4.5451 -0.8726 0
M  V30 92 Ga -0.1037 3.9306 -0.5438 0
M  V30 93 Ba -1.3760 3.2429 -0.2277 0
M  V30 94 Ba 1.0800 -6.4680 -1.7000 0
M  V30 95 Ga 0.3132 -7.7203 -1.5803 0
M  V30 96 Ba -0.4913 -8.9535 -1.6326 0
M  V30 97 Ba -2.7516 1.6025 1.2191 0
M  V30 98 Ga -2.5228 1.2915 2.6453 0
M  V30 99 Ba -2.3151 0.9856 4.0757 0
M  V30 END ATOM
M  V30 BEGIN BOND
M  V30 1 1 1 2
M  V30 2 1 1 3
M  V30 3 1 1 4
M  V30 4 1 1 5
M  V30 5 1 6 7
M  V30 6 1 6 8
M  V30 7 1 6 9
M  V30 8 1 6 10
M  V30 9 1 11 12
M  V30 10 1 11 13
M  V30 11 1 11 14
M  V30 12 1 11 15
M  V30 13 1 16 17
M  V30 14 1 16 18
M  V30 15 1 16 19
M  V30 16 1 16 20
M  V30 17 1 21 22
M  V30 18 1 21 23
M  V30 19 1 21 24
M  V30 20 1 21 25
M  V30 21 1 26 27
M  V30 22 1 26 28
M  V30 23 1 26 29
M  V30 24 1 26 30
M  V30 25 1 31 32
M  V30 26 1 31 33
M  V30 27 1 31 34
M  V30 28 1 31 35
M  V30 29 1 36 37
M  V30 30 1 36 38
M  V30 31 1 36 39
M  V30 32 1 36 40
M  V30 33 1 41 42
M  V30 34 1 41 43
M  V30 35 1 41 44
M  V30 36 1 41 45
M  V30 37 1 46 47
M  V30 38 1 47 48
M  V30 39 1 49 50
M  V30 40 1 50 51
M  V30 41 1 52 53
M  V30 42 1 53 54
M  V30 43 1 55 56
M  V30 44 1 56 57
M  V30 45 1 58 59
M  V30 46 1 59 60
M  V30 47 1 61 62
M  V30 48 1 62 63
M  V30 49 1 64 65
M  V30 50 1 65 66
M  V30 51 1 67 68
M  V30 52 1 68 69
M  V30 53 1 70 71
M  V30 54 1 71 72
M  V30 55 1 73 74
M  V30 56 1 74 75
M  V30 57 1 76 77
M  V30 58 1 77 78
M  V30 59 1 79 80
M  V30 60 1 80 81
M  V30 61 1 82 83
M  V30 62 1 83 84
M  V30 63 1 85 86
M  V30 64 1 86 87
M  V30 65 1 88 89
M  V30 66 1 89 90
M  V30 67 1 91 92
M  V30 68 1 92 93
M  V30 69 1 94 95
M  V30 70 1 95 96
M  V30 71 1 97 98
M  V30 72 1 98 99
M  V30 73 1 2 76
M  V30 74 1 3 73
M  V30 75 1 4 67
M  V30 76 1 5 52
M  V30 77 1 7 64
M  V30 78 1 8 49
M  V30 79 1 9 55
M  V30 80 1 10 88
M  V30 81 1 12 61
M  V30 82 1 13 70
M  V30 83 1 14 79
M  V30 84 1 15 58
M  V30 85 1 17 72
M  V30 86 1 18 94
M  V30 87 1 19 90
M  V30 88 1 20 85
M  V30 89 1 22 82
M  V30 90 1 23 51
M  V30 91 1 24 78
M  V30 92 1 25 91
M  V30 93 1 27 69
M  V30 94 1 28 46
M  V30 95 1 29 75
M  V30 96 1 30 54
M  V30 97 1 32 93
M  V30 98 1 33 97
M  V30 99 1 34 84
M  V30 100 1 35 63
M  V30 101 1 37 96
M  V30 102 1 38 81
M  V30 103 1 39 60
M  V30 104 1 40 87
M  V30 105 1 42 57
M  V30 106 1 43 48
M  V30 107 1 44 99
M  V30 108 1 45 66
M  V30 END BOND
M  V30 END CTAB
M  END

$$$$
