
     RDKit          3D

  0  0  0  0  0  0  0  0  0  0999 V3000
M  V30 BEGIN CTAB
M  V30 COUNTS 99 108 0 0 0
M  V30 BEGIN ATOM
M  V30 1 Pd 2.1385 -4.6313 0.0519 0
M  V30 2 Pb 1.3739 -4.3000 0.6076 0
M  V30 3 Pb 2.8865 -4.9799 -0.5126 0
M  V30 4 Pb 1.7572 -5.5565 0.0709 0
M  V30 5 Pb 2.5158 -3.7077 -0.0237 0
M  V30 6 Pd 1.4606 -7.3001 -3.9965 0
M  V30 7 Pb 0.5139 -7.4039 -4.2982 0
M  V30 8 Pb 1.2398 -7.6795 -3.0986 0
M  V30 9 Pb 2.3830 -7.1110 -3.6654 0
M  V30 10 Pb 1.6582 -6.8249 -4.8520 0
M  V30 11 Pd -3.6261 4.2090 -0.2585 0
M  V30 12 Pb -3.6985 5.0001 0.3542 0
M  V30 13 Pb -3.5223 3.4057 -0.8464 0
M  V30 14 Pb -2.7309 4.5413 -0.5360 0
M  V30 15 Pb -4.5273 3.8596 -0.0085 0
M  V30 16 Pd 3.6003 5.4901 1.9223 0
M  V30 17 Pb 4.3301 5.4410 2.5996 0
M  V30 18 Pb 3.1563 6.2473 2.4068 0
M  V30 19 Pb 3.9315 4.6205 1.5155 0
M  V30 20 Pb 2.9085 5.5493 1.2099 0
M  V30 21 Pd -4.4910 -0.5153 1.1684 0
M  V30 22 Pb -4.4090 -0.0391 2.0416 0
M  V30 23 Pb -4.5624 -0.9386 0.2645 0
M  V30 24 Pb -5.1901 0.1579 0.9298 0
M  V30 25 Pb -3.7749 -1.1621 1.4374 0
M  V30 26 Pd -1.1793 -3.3892 -5.3148 0
M  V30 27 Pb -1.5462 -4.3199 -5.3189 0
M  V30 28 Pb -0.7707 -2.4753 -5.2849 0
M  V30 29 Pb -0.3926 -3.7255 -5.8332 0
M  V30 30 Pb -1.9710 -3.0843 -4.7836 0
M  V30 31 Pd -1.1743 5.5024 4.3524 0
M  V30 32 Pb -1.8834 4.8084 4.4662 0
M  V30 33 Pb -0.6272 4.9316 4.9647 0
M  V30 34 Pb -1.7771 6.0130 3.7341 0
M  V30 35 Pb -0.4325 6.1726 4.2260 0
M  V30 36 Pd 0.1251 0.1361 -1.4006 0
M  V30 37 Pb -0.0385 0.1514 -0.4145 0
M  V30 38 Pb -0.8093 0.4391 -1.5999 0
M  V30 39 Pb 1.0529 -0.1791 -1.2018 0
M  V30 40 Pb 0.2845 0.1012 -2.3879 0
M  V30 41 Pd 3.1878 0.3508 3.3764 0
M  V30 42 Pb 3.5837 0.6866 2.5117 0
M  V30 43 Pb 4.0642 0.5107 3.8238 0
M  V30 44 Pb 2.7579 0.3443 4.2727 0
M  V30 45 Pb 2.2745 0.2505 2.9713 0
M  V30 46 Ag -2.0573 4.7944 -0.7261 0
M  V30 47 Fe 0.1795 5.2063 -0.0650 0
M  V30 48 Ag 2.3990 5.5893 0.6680 0
M  V30 49 Ag -0.2994 4.4074 5.3902 0
M  V30 50 Fe 1.0339 2.4450 5.3698 0
M  V30 51 Ag 2.4163 0.5781 4.8915 0
M  V30 52 Ag -4.6144 -1.2235 -0.4281 0
M  V30 53 Fe -3.5817 -2.0566 -2.3990 0
M  V30 54 Ag -2.5766 -2.8934 -4.3826 0
M  V30 55 Ag -4.3619 0.3825 2.6577 0
M  V30 56 Fe -3.3960 2.3039 3.6613 0
M  V30 57 Ag -2.3679 4.2450 4.5597 0
M  V30 58 Ag 0.7908 -4.0773 1.0262 0
M  V30 59 Fe -1.2191 -2.8418 1.3153 0
M  V30 60 Ag -3.2334 -1.6301 1.6674 0
M  V30 61 Ag 4.8605 5.2338 3.0756 0
M  V30 62 Fe 5.2757 3.0897 3.9534 0
M  V30 63 Ag 4.6626 0.8244 4.1289 0
M  V30 64 Ba -0.1412 0.1377 0.3282 0
M  V30 65 Ga 0.7405 0.1719 1.5138 0
M  V30 66 Ba 1.5567 0.1995 2.7454 0
M  V30 67 Ba 1.7576 -6.4060 -5.4642 0
M  V30 68 Ga 1.0127 -5.2075 -5.8894 0
M  V30 69 Ba 0.1897 -4.0247 -6.1996 0
M  V30 70 Ba 3.4161 -5.2730 -0.9550 0
M  V30 71 Ga 3.2991 -6.1001 -2.1684 0
M  V30 72 Ba 3.0406 -6.9165 -3.3669 0
M  V30 73 Ba 4.1393 3.9465 1.2165 0
M  V30 74 Ga 4.0098 2.4995 1.5670 0
M  V30 75 Ba 3.8832 1.0517 1.9147 0
M  V30 76 Ba 1.4846 -6.2548 0.0274 0
M  V30 77 Ga 1.2640 -7.1231 -1.1448 0
M  V30 78 Ba 1.0914 -7.8882 -2.3942 0
M  V30 79 Ba 2.8072 -3.0226 -0.1199 0
M  V30 80 Ga 2.2782 -1.7190 -0.5649 0
M  V30 81 Ba 1.7366 -0.4210 -1.0109 0
M  V30 82 Ba -0.1983 -7.4022 -4.5301 0
M  V30 83 Ga -1.0391 -6.2596 -4.9319 0
M  V30 84 Ba -1.7706 -5.0358 -5.3077 0
M  V30 85 Ba -3.7023 5.6046 0.8040 0
M  V30 86 Ga -2.9866 5.9860 2.0420 0
M  V30 87 Ba -2.2675 6.3609 3.2800 0
M  V30 88 Ba -0.4299 -1.8059 -5.2616 0
M  V30 89 Ga -0.0324 -0.8629 -4.1971 0
M  V30 90 Ba 0.3656 0.0816 -3.1341 0
M  V30 91 Ba -5.1848 3.5299 0.1306 0
M  V30 92 Ga -5.4908 2.1284 0.4678 0
M  V30 93 Ba -5.6846 0.7066 0.8029 0
M  V30 94 Ba 2.7662 6.7654 2.7904 0
M  V30 95 Ga 1.4433 6.7279 3.4597 0
M  V30 96 Ba 0.1196 6.6820 4.1267 0
M  V30 97 Ba -3.4666 2.7896 -1.2718 0
M  V30 98 Ga -2.4630 1.7330 -1.5129 0
M  V30 99 Ba -1.5047 0.6459 -1.7986 0
M  V30 END ATOM
M  V30 BEGIN BOND
M  V30 1 1 1 2
M  V30 2 1 1 3
M  V30 3 1 1 4
M  V30 4 1 1 5
M  V30 5 1 6 7
M  V30 6 1 6 8
M  V30 7 1 6 9
M  V30 8 1 6 10
M  V30 9 1 11 12
M  V30 10 1 11 13
M  V30 11 1 11 14
M  V30 12 1 11 15
M  V30 13 1 16 17
M  V30 14 1 16 18
M  V30 15 1 16 19
M  V30 16 1 16 20
M  V30 17 1 21 22
M  V30 18 1 21 23
M  V30 19 1 21 24
M  V30 20 1 21 25
M  V30 21 1 26 27
M  V30 22 1 26 28
M  V30 23 1 26 29
M  V30 24 1 26 30
M  V30 25 1 31 32
M  V30 26 1 31 33
M  V30 27 1 31 34
M  V30 28 1 31 35
M  V30 29 1 36 37
M  V30 30 1 36 38
M  V30 31 1 36 39
M  V30 32 1 36 40
M  V30 33 1 41 42
M  V30 34 1 41 43
M  V30 35 1 41 44
M  V30 36 1 41 45
M  V30 37 1 46 47
M  V30 38 1 47 48
M  V30 39 1 49 50
M  V30 40 1 50 51
M  V30 41 1 52 53
M  V30 42 1 53 54
M  V30 43 1 55 56
M  V30 44 1 56 57
M  V30 45 1 58 59
M  V30 46 1 59 60
M  V30 47 1 61 62
M  V30 48 1 62 63
M  V30 49 1 64 65
M  V30 50 1 65 66
M  V30 51 1 67 68
M  V30 52 1 68 69
M  V30 53 1 70 71
M  V30 54 1 71 72
M  V30 55 1 73 74
M  V30 56 1 74 75
M  V30 57 1 76 77
M  V30 58 1 77 78
M  V30 59 1 79 80
M  V30 60 1 80 81
M  V30 61 1 82 83
M  V30 62 1 83 84
M  V30 63 1 85 86
M  V30 64 1 86 87
M  V30 65 1 88 89
M  V30 66 1 89 90
M  V30 67 1 91 92
M  V30 68 1 92 93
M  V30 69 1 94 95
M  V30 70 1 95 96
M  V30 71 1 97 98
M  V30 72 1 98 99
M  V30 73 1 2 58
M  V30 74 1 3 70
M  V30 75 1 4 76
M  V30 76 1 5 79
M  V30 77 1 7 82
M  V30 78 1 8 78
M  V30 79 1 9 72
M  V30 80 1 10 67
M  V30 81 1 12 85
M  V30 82 1 13 97
M  V30 83 1 14 46
M  V30 84 1 15 91
M  V30 85 1 17 61
M  V30 86 1 18 94
M  V30 87 1 19 73
M  V30 88 1 20 48
M  V30 89 1 22 55
M  V30 90 1 23 52
M  V30 91 1 24 93
M  V30 92 1 25 60
M  V30 93 1 27 84
M  V30 94 1 28 88
M  V30 95 1 29 69
M  V30 96 1 30 54
M  V30 97 1 32 57
M  V30 98 1 33 49
M  V30 99 1 34 87
M  V30 100 1 35 96
M  V30 101 1 37 64
M  V30 102 1 38 99
M  V30 103 1 39 81
M  V30 104 1 40 90
M  V30 105 1 42 75
M  V30 106 1 43 63
M  V30 107 1 44 51
M  V30 108 1 45 66
M  V30 END BOND
M  V30 END CTAB
M  END

$$$$
