
     RDKit          3D

  0  0  0  0  0  0  0  0  0  0999 V3000
M  V30 BEGIN CTAB
M  V30 COUNTS 99 108 0 0 0
M  V30 BEGIN ATOM
M  V30 1 Pd 1.5529 1.2063 6.0907 0
M  V30 2 Pb 1.5892 2.1952 5.9375 0
M  V30 3 Pb 1.1963 1.3078 7.0209 0
M  V30 4 Pb 1.4642 0.2207 6.2283 0
M  V30 5 Pb 1.7826 1.0587 5.1311 0
M  V30 6 Pd -4.0037 -2.0357 8.1574 0
M  V30 7 Pb -4.4282 -2.4169 7.3355 0
M  V30 8 Pb -3.1839 -2.5842 8.0155 0
M  V30 9 Pb -3.4785 -1.5040 8.8221 0
M  V30 10 Pb -4.7394 -1.3639 8.1718 0
M  V30 11 Pd -1.9249 0.8503 -4.7615 0
M  V30 12 Pb -1.3898 1.6979 -4.7775 0
M  V30 13 Pb -2.4276 -0.0049 -4.6394 0
M  V30 14 Pb -1.5678 0.5450 -5.6447 0
M  V30 15 Pb -2.2976 1.1575 -3.8933 0
M  V30 16 Pd 3.9880 -1.8808 -8.5713 0
M  V30 17 Pb 4.9130 -2.1067 -8.2779 0
M  V30 18 Pb 4.1601 -0.9152 -8.3872 0
M  V30 19 Pb 3.7865 -2.8603 -8.5246 0
M  V30 20 Pb 3.0338 -1.6546 -8.7567 0
M  V30 21 Pd -0.5696 3.9501 2.2063 0
M  V30 22 Pb 0.1872 3.3869 1.8701 0
M  V30 23 Pb -1.3615 4.4742 2.5149 0
M  V30 24 Pb -1.1597 3.5948 1.4891 0
M  V30 25 Pb -0.0070 4.2684 2.9718 0
M  V30 26 Pd -5.0822 1.8627 2.6078 0
M  V30 27 Pb -5.2334 0.8730 2.6487 0
M  V30 28 Pb -4.6261 1.8095 1.7150 0
M  V30 29 Pb -5.5223 1.9041 3.5040 0
M  V30 30 Pb -4.8757 2.8410 2.6614 0
M  V30 31 Pd 2.7114 2.1172 -2.4449 0
M  V30 32 Pb 2.3699 2.1380 -1.4995 0
M  V30 33 Pb 3.4214 1.5056 -2.0895 0
M  V30 34 Pb 1.9720 2.6752 -2.8304 0
M  V30 35 Pb 3.1023 2.0997 -3.3687 0
M  V30 36 Pd -1.5055 -1.3132 -0.5449 0
M  V30 37 Pb -0.9959 -2.1752 -0.5484 0
M  V30 38 Pb -2.1415 -1.6765 -1.2274 0
M  V30 39 Pb -0.8002 -0.9231 0.0489 0
M  V30 40 Pb -2.0182 -0.4504 -0.5421 0
M  V30 41 Pd 4.8525 -4.8892 -2.7207 0
M  V30 42 Pb 4.5197 -5.4459 -3.4834 0
M  V30 43 Pb 5.6419 -4.6724 -3.2891 0
M  V30 44 Pb 5.1219 -4.1634 -2.0899 0
M  V30 45 Pb 4.0107 -5.0392 -2.2024 0
M  V30 46 Ag -1.3104 0.3035 -6.3070 0
M  V30 47 Fe 0.4640 -0.5755 -7.6169 0
M  V30 48 Ag 2.3167 -1.4503 -8.8165 0
M  V30 49 Ag -0.5997 -2.8135 -0.5435 0
M  V30 50 Fe 1.3630 -3.9981 -1.1675 0
M  V30 51 Ag 3.3584 -5.1001 -1.8370 0
M  V30 52 Ag -5.2223 -0.8126 8.0327 0
M  V30 53 Fe -5.6930 0.6380 6.2171 0
M  V30 54 Ag -5.8233 1.8590 4.1882 0
M  V30 55 Ag 0.8395 1.2718 7.6813 0
M  V30 56 Fe -1.0490 0.2007 8.6481 0
M  V30 57 Ag -2.9972 -1.0522 9.1792 0
M  V30 58 Ag 3.9017 1.0131 -1.7847 0
M  V30 59 Fe 4.6675 -1.2335 -1.6685 0
M  V30 60 Ag 5.2799 -3.5287 -1.7246 0
M  V30 61 Ag 3.6804 -3.5750 -8.3178 0
M  V30 62 Fe 3.9052 -4.8669 -6.3348 0
M  V30 63 Ag 4.2848 -5.7128 -4.1456 0
M  V30 64 Ag 1.3105 -0.4981 6.3705 0
M  V30 65 Fe -0.4652 -1.8883 7.1035 0
M  V30 66 Ag -2.5028 -2.8414 7.8526 0
M  V30 67 Ag 1.8760 0.9303 4.4002 0
M  V30 68 Fe 0.8343 0.1464 2.4151 0
M  V30 69 Ag -0.2246 -0.6400 0.4402 0
M  V30 70 Ag -4.7002 -2.5560 6.6495 0
M  V30 71 Fe -5.0931 -1.3750 4.6241 0
M  V30 72 Ag -5.3352 0.1461 2.8131 0
M  V30 73 Ag -2.5635 1.4019 -3.2435 0
M  V30 74 Fe -2.1074 2.3629 -1.1277 0
M  V30 75 Ag -1.6357 3.3246 0.9843 0
M  V30 76 Ag 5.5411 -2.3282 -7.9434 0
M  V30 77 Fe 6.1306 -3.3970 -5.9145 0
M  V30 78 Ag 6.1429 -4.4598 -3.7987 0
M  V30 79 Ag 4.2487 -0.2247 -8.1115 0
M  V30 80 Fe 3.8496 1.0205 -6.1272 0
M  V30 81 Ag 3.3801 2.1119 -4.0688 0
M  V30 82 Ba -2.0096 4.8093 2.6836 0
M  V30 83 Ga -3.3681 4.2359 2.7321 0
M  V30 84 Ba -4.6797 3.5606 2.7536 0
M  V30 85 Ba -1.0078 2.3413 -4.6910 0
M  V30 86 Ga 0.2198 2.7131 -3.9517 0
M  V30 87 Ba 1.4493 3.0670 -3.2069 0
M  V30 88 Ba -4.2843 1.8099 1.0430 0
M  V30 89 Ga -3.3434 0.9700 0.2690 0
M  V30 90 Ba -2.4074 0.1941 -0.5747 0
M  V30 91 Ba 0.7374 2.9315 1.6368 0
M  V30 92 Ga 1.4385 2.5645 0.3865 0
M  V30 93 Ba 2.2386 2.0761 -0.7578 0
M  V30 94 Ba 1.5993 2.9302 5.7817 0
M  V30 95 Ga 1.0152 3.7264 4.6826 0
M  V30 96 Ba 0.4100 4.4756 3.5621 0
M  V30 97 Ba -2.7863 -0.6332 -4.4432 0
M  V30 98 Ga -2.7352 -1.3307 -3.1437 0
M  V30 99 Ba -2.5755 -1.9084 -1.7951 0
M  V30 END ATOM
M  V30 BEGIN BOND
M  V30 1 1 1 2
M  V30 2 1 1 3
M  V30 3 1 1 4
M  V30 4 1 1 5
M  V30 5 1 6 7
M  V30 6 1 6 8
M  V30 7 1 6 9
M  V30 8 1 6 10
M  V30 9 1 11 12
M  V30 10 1 11 13
M  V30 11 1 11 14
M  V30 12 1 11 15
M  V30 13 1 16 17
M  V30 14 1 16 18
M  V30 15 1 16 19
M  V30 16 1 16 20
M  V30 17 1 21 22
M  V30 18 1 21 23
M  V30 19 1 21 24
M  V30 20 1 21 25
M  V30 21 1 26 27
M  V30 22 1 26 28
M  V30 23 1 26 29
M  V30 24 1 26 30
M  V30 25 1 31 32
M  V30 26 1 31 33
M  V30 27 1 31 34
M  V30 28 1 31 35
M  V30 29 1 36 37
M  V30 30 1 36 38
M  V30 31 1 36 39
M  V30 32 1 36 40
M  V30 33 1 41 42
M  V30 34 1 41 43
M  V30 35 1 41 44
M  V30 36 1 41 45
M  V30 37 1 46 47
M  V30 38 1 47 48
M  V30 39 1 49 50
M  V30 40 1 50 51
M  V30 41 1 52 53
M  V30 42 1 53 54
M  V30 43 1 55 56
M  V30 44 1 56 57
M  V30 45 1 58 59
M  V30 46 1 59 60
M  V30 47 1 61 62
M  V30 48 1 62 63
M  V30 49 1 64 65
M  V30 50 1 65 66
M  V30 51 1 67 68
M  V30 52 1 68 69
M  V30 53 1 70 71
M  V30 54 1 71 72
M  V30 55 1 73 74
M  V30 56 1 74 75
M  V30 57 1 76 77
M  V30 58 1 77 78
M  V30 59 1 79 80
M  V30 60 1 80 81
M  V30 61 1 82 83
M  V30 62 1 83 84
M  V30 63 1 85 86
M  V30 64 1 86 87
M  V30 65 1 88 89
M  V30 66 1 89 90
M  V30 67 1 91 92
M  V30 68 1 92 93
M  V30 69 1 94 95
M  V30 70 1 95 96
M  V30 71 1 97 98
M  V30 72 1 98 99
M  V30 73 1 2 94
M  V30 74 1 3 55
M  V30 75 1 4 64
M  V30 76 1 5 67
M  V30 77 1 7 70
M  V30 78 1 8 66
M  V30 79 1 9 57
M  V30 80 1 10 52
M  V30 81 1 12 85
M  V30 82 1 13 97
M  V30 83 1 14 46
M  V30 84 1 15 73
M  V30 85 1 17 76
M  V30 86 1 18 79
M  V30 87 1 19 61
M  V30 88 1 20 48
M  V30 89 1 22 91
M  V30 90 1 23 82
M  V30 91 1 24 75
M  V30 92 1 25 96
M  V30 93 1 27 72
M  V30 94 1 28 88
M  V30 95 1 29 54
M  V30 96 1 30 84
M  V30 97 1 32 93
M  V30 98 1 33 58
M  V30 99 1 34 87
M  V30 100 1 35 81
M  V30 101 1 37 49
M  V30 102 1 38 99
M  V30 103 1 39 69
M  V30 104 1 40 90
M  V30 105 1 42 63
M  V30 106 1 43 78
M  V30 107 1 44 60
M  V30 108 1 45 51
M  V30 END BOND
M  V30 END CTAB
M  END

$$$$
