
     RDKit          3D

  0  0  0  0  0  0  0  0  0  0999 V3000
M  V30 BEGIN CTAB
M  V30 COUNTS 99 108 0 0 0
M  V30 BEGIN ATOM
M  V30 1 Pd -5.9126 -7.1327 -2.0765 0
M  V30 2 Pb -6.1542 -6.8322 -1.1525 0
M  V30 3 Pb -5.9513 -8.0696 -1.7386 0
M  V30 4 Pb -5.8628 -6.1924 -2.4132 0
M  V30 5 Pb -5.4000 -7.4885 -2.8664 0
M  V30 6 Pd -2.1957 9.2784 0.1796 0
M  V30 7 Pb -1.7370 8.4332 0.4575 0
M  V30 8 Pb -1.6424 9.7527 0.8605 0
M  V30 9 Pb -2.7154 8.8141 -0.5400 0
M  V30 10 Pb -2.3047 10.1590 -0.2839 0
M  V30 11 Pd 2.2210 -2.7470 -0.3876 0
M  V30 12 Pb 1.8327 -1.8251 -0.4058 0
M  V30 13 Pb 2.1666 -3.7129 -0.6409 0
M  V30 14 Pb 1.6838 -2.9473 0.4320 0
M  V30 15 Pb 2.7123 -1.9934 0.0577 0
M  V30 16 Pd 2.9122 -4.1608 6.7084 0
M  V30 17 Pb 2.0725 -4.1812 6.1731 0
M  V30 18 Pb 2.5427 -3.4679 7.3302 0
M  V30 19 Pb 3.8096 -4.0196 7.1192 0
M  V30 20 Pb 3.3788 -4.6297 5.9514 0
M  V30 21 Pd -1.6900 4.9536 -3.3682 0
M  V30 22 Pb -2.3522 4.3228 -2.9636 0
M  V30 23 Pb -2.3093 5.7137 -3.1613 0
M  V30 24 Pb -1.0815 4.1857 -3.5686 0
M  V30 25 Pb -1.0182 5.5736 -3.7763 0
M  V30 26 Pd -2.0233 -0.4335 -2.8459 0
M  V30 27 Pb -1.3060 -0.1147 -2.2255 0
M  V30 28 Pb -1.3268 0.2020 -3.1807 0
M  V30 29 Pb -2.5988 0.3391 -2.5776 0
M  V30 30 Pb -2.8407 -0.9853 -3.0113 0
M  V30 31 Pd 5.5494 -1.4012 4.0823 0
M  V30 32 Pb 5.1545 -1.0338 3.2368 0
M  V30 33 Pb 5.3701 -0.5408 4.5632 0
M  V30 34 Pb 5.9060 -1.7719 4.9428 0
M  V30 35 Pb 5.5230 -2.3472 3.7474 0
M  V30 36 Pd -1.8792 -9.3324 -0.9914 0
M  V30 37 Pb -2.7399 -9.8214 -0.8747 0
M  V30 38 Pb -2.0881 -9.2947 -1.9754 0
M  V30 39 Pb -1.8918 -9.1568 -0.0058 0
M  V30 40 Pb -1.0217 -8.8319 -1.1107 0
M  V30 41 Pd 3.2748 10.2330 -1.8450 0
M  V30 42 Pb 3.3739 9.3456 -1.3918 0
M  V30 43 Pb 3.0540 9.7506 -2.6900 0
M  V30 44 Pb 3.3358 10.6680 -0.9514 0
M  V30 45 Pb 2.7924 11.0443 -2.1786 0
M  V30 46 Ag -2.1235 10.7731 -0.6801 0
M  V30 47 Fe -0.0579 11.4662 -1.6386 0
M  V30 48 Ag 2.2280 11.5278 -2.2996 0
M  V30 49 Ag -6.0632 -6.7599 -0.4140 0
M  V30 50 Fe -4.1956 -7.6707 0.7190 0
M  V30 51 Ag -2.1661 -8.8852 0.6344 0
M  V30 52 Ag 1.2853 -3.1237 1.0426 0
M  V30 53 Fe 1.2711 -3.6489 3.3567 0
M  V30 54 Ag 1.5287 -4.1379 5.6641 0
M  V30 55 Ag -1.1282 10.1064 1.2674 0
M  V30 56 Fe 1.1222 10.7207 0.8907 0
M  V30 57 Ag 3.1693 10.9159 -0.2718 0
M  V30 58 Ag 2.4527 -2.7847 7.6181 0
M  V30 59 Fe 3.5743 -0.9093 6.7180 0
M  V30 60 Ag 5.0634 -0.0914 5.0750 0
M  V30 61 Ag -5.8263 -5.4872 -2.6660 0
M  V30 62 Fe -4.6393 -3.4435 -2.9003 0
M  V30 63 Ag -3.4539 -1.3989 -3.1356 0
M  V30 64 Ag 2.1254 -4.4372 -0.8311 0
M  V30 65 Fe 0.8735 -6.4470 -1.0156 0
M  V30 66 Ag -0.3784 -8.4567 -1.1999 0
M  V30 67 Ag -1.1806 7.9352 0.5541 0
M  V30 68 Fe 1.1083 8.0062 -0.0960 0
M  V30 69 Ag 3.1843 8.7209 -1.0161 0
M  V30 70 Ag -0.4914 6.0177 -4.0754 0
M  V30 71 Fe 1.1742 7.6820 -3.7678 0
M  V30 72 Ag 2.7884 9.3482 -3.2617 0
M  V30 73 Ba -0.6253 3.6096 -3.7188 0
M  V30 74 Ga -0.7150 2.1443 -3.5763 0
M  V30 75 Ba -0.8055 0.6790 -3.4335 0
M  V30 76 Ba 1.5397 -1.1344 -0.4204 0
M  V30 77 Ga 0.3855 -0.5054 -1.0896 0
M  V30 78 Ba -0.7688 0.1234 -1.7588 0
M  V30 79 Ba -5.9167 -8.7694 -1.4818 0
M  V30 80 Ga -4.7164 -9.5332 -1.1193 0
M  V30 81 Ba -3.4138 -10.1348 -0.8085 0
M  V30 82 Ba 3.7691 -4.8543 5.3428 0
M  V30 83 Ga 4.6152 -4.0361 4.4349 0
M  V30 84 Ba 5.4229 -3.0866 3.6253 0
M  V30 85 Ba -4.9145 -7.8043 -3.3572 0
M  V30 86 Ga -3.6307 -8.5103 -3.0831 0
M  V30 87 Ba -2.3702 -9.1919 -2.6727 0
M  V30 88 Ba -2.8488 3.8494 -2.6604 0
M  V30 89 Ga -2.9398 2.3841 -2.5183 0
M  V30 90 Ba -3.0302 0.9187 -2.3765 0
M  V30 91 Ba 4.5068 -3.8332 7.3128 0
M  V30 92 Ga 5.3917 -2.9610 6.5191 0
M  V30 93 Ba 6.1249 -2.0755 5.5954 0
M  V30 94 Ba 3.0911 -1.4106 0.3489 0
M  V30 95 Ga 3.9676 -1.1116 1.5019 0
M  V30 96 Ba 4.8515 -0.7225 2.6219 0
M  V30 97 Ba -3.1057 8.4956 -1.0980 0
M  V30 98 Ga -2.9284 7.3705 -2.0392 0
M  V30 99 Ba -2.8032 6.2586 -3.0042 0
M  V30 END ATOM
M  V30 BEGIN BOND
M  V30 1 1 1 2
M  V30 2 1 1 3
M  V30 3 1 1 4
M  V30 4 1 1 5
M  V30 5 1 6 7
M  V30 6 1 6 8
M  V30 7 1 6 9
M  V30 8 1 6 10
M  V30 9 1 11 12
M  V30 10 1 11 13
M  V30 11 1 11 14
M  V30 12 1 11 15
M  V30 13 1 16 17
M  V30 14 1 16 18
M  V30 15 1 16 19
M  V30 16 1 16 20
M  V30 17 1 21 22
M  V30 18 1 21 23
M  V30 19 1 21 24
M  V30 20 1 21 25
M  V30 21 1 26 27
M  V30 22 1 26 28
M  V30 23 1 26 29
M  V30 24 1 26 30
M  V30 25 1 31 32
M  V30 26 1 31 33
M  V30 27 1 31 34
M  V30 28 1 31 35
M  V30 29 1 36 37
M  V30 30 1 36 38
M  V30 31 1 36 39
M  V30 32 1 36 40
M  V30 33 1 41 42
M  V30 34 1 41 43
M  V30 35 1 41 44
M  V30 36 1 41 45
M  V30 37 1 46 47
M  V30 38 1 47 48
M  V30 39 1 49 50
M  V30 40 1 50 51
M  V30 41 1 52 53
M  V30 42 1 53 54
M  V30 43 1 55 56
M  V30 44 1 56 57
M  V30 45 1 58 59
M  V30 46 1 59 60
M  V30 47 1 61 62
M  V30 48 1 62 63
M  V30 49 1 64 65
M  V30 50 1 65 66
M  V30 51 1 67 68
M  V30 52 1 68 69
M  V30 53 1 70 71
M  V30 54 1 71 72
M  V30 55 1 73 74
M  V30 56 1 74 75
M  V30 57 1 76 77
M  V30 58 1 77 78
M  V30 59 1 79 80
M  V30 60 1 80 81
M  V30 61 1 82 83
M  V30 62 1 83 84
M  V30 63 1 85 86
M  V30 64 1 86 87
M  V30 65 1 88 89
M  V30 66 1 89 90
M  V30 67 1 91 92
M  V30 68 1 92 93
M  V30 69 1 94 95
M  V30 70 1 95 96
M  V30 71 1 97 98
M  V30 72 1 98 99
M  V30 73 1 2 49
M  V30 74 1 3 79
M  V30 75 1 4 61
M  V30 76 1 5 85
M  V30 77 1 7 67
M  V30 78 1 8 55
M  V30 79 1 9 97
M  V30 80 1 10 46
M  V30 81 1 12 76
M  V30 82 1 13 64
M  V30 83 1 14 52
M  V30 84 1 15 94
M  V30 85 1 17 54
M  V30 86 1 18 58
M  V30 87 1 19 91
M  V30 88 1 20 82
M  V30 89 1 22 88
M  V30 90 1 23 99
M  V30 91 1 24 73
M  V30 92 1 25 70
M  V30 93 1 27 78
M  V30 94 1 28 75
M  V30 95 1 29 90
M  V30 96 1 30 63
M  V30 97 1 32 96
M  V30 98 1 33 60
M  V30 99 1 34 93
M  V30 100 1 35 84
M  V30 101 1 37 81
M  V30 102 1 38 87
M  V30 103 1 39 51
M  V30 104 1 40 66
M  V30 105 1 42 69
M  V30 106 1 43 72
M  V30 107 1 44 57
M  V30 108 1 45 48
M  V30 END BOND
M  V30 END CTAB
M  END

$$$$
