
     RDKit          3D

  0  0  0  0  0  0  0  0  0  0999 V3000
M  V30 BEGIN CTAB
M  V30 COUNTS 99 108 0 0 0
M  V30 BEGIN ATOM
M  V30 1 Pd -3.2136 2.3744 -3.2905 0
M  V30 2 Pb -3.5457 1.8119 -2.5305 0
M  V30 3 Pb -2.9280 2.9590 -4.0516 0
M  V30 4 Pb -4.0292 2.1264 -3.8150 0
M  V30 5 Pb -2.4019 2.6603 -2.7766 0
M  V30 6 Pd -3.7225 1.6350 -8.3403 0
M  V30 7 Pb -2.9273 1.5989 -8.9437 0
M  V30 8 Pb -4.4680 1.6203 -7.6759 0
M  V30 9 Pb -3.3791 2.4708 -7.9150 0
M  V30 10 Pb -4.0016 0.7440 -8.6957 0
M  V30 11 Pd 1.6886 -3.9758 2.9430 0
M  V30 12 Pb 1.3663 -4.2874 3.8410 0
M  V30 13 Pb 2.0278 -3.6616 2.0552 0
M  V30 14 Pb 2.5221 -3.6155 3.3603 0
M  V30 15 Pb 0.8938 -4.3902 2.4963 0
M  V30 16 Pd 5.6971 1.8085 5.9788 0
M  V30 17 Pb 5.9146 2.1374 5.0598 0
M  V30 18 Pb 5.3386 1.4511 6.8408 0
M  V30 19 Pb 5.5285 2.7575 6.2449 0
M  V30 20 Pb 5.7898 0.8620 5.6783 0
M  V30 21 Pd -2.7970 -2.5568 -0.0532 0
M  V30 22 Pb -3.0279 -2.3776 0.9028 0
M  V30 23 Pb -2.5998 -2.8044 -1.0043 0
M  V30 24 Pb -2.3381 -3.3943 0.2442 0
M  V30 25 Pb -3.2773 -1.7145 -0.3088 0
M  V30 26 Pd -0.7308 -1.8791 -7.6372 0
M  V30 27 Pb -0.5139 -1.2370 -8.3714 0
M  V30 28 Pb 0.0847 -1.5988 -7.1349 0
M  V30 29 Pb -1.5851 -2.0915 -8.1111 0
M  V30 30 Pb -0.9939 -2.4622 -6.8687 0
M  V30 31 Pd -0.5243 -1.6131 7.2349 0
M  V30 32 Pb -1.3142 -1.7459 6.6386 0
M  V30 33 Pb -0.7647 -0.6477 7.3095 0
M  V30 34 Pb -0.2491 -2.5631 7.0807 0
M  V30 35 Pb 0.2976 -1.4278 7.7764 0
M  V30 36 Pd 1.4486 0.4192 -0.7583 0
M  V30 37 Pb 1.1498 0.5603 0.1840 0
M  V30 38 Pb 1.8707 -0.4639 -0.5409 0
M  V30 39 Pb 1.0131 1.2895 -0.9915 0
M  V30 40 Pb 1.7363 0.2818 -1.7051 0
M  V30 41 Pd 2.2111 3.8661 3.8528 0
M  V30 42 Pb 2.7360 4.4773 4.4432 0
M  V30 43 Pb 3.0304 3.7542 3.2902 0
M  V30 44 Pb 1.4435 3.8973 4.4879 0
M  V30 45 Pb 1.7123 3.1464 3.3648 0
M  V30 46 Ag 3.1706 -3.3640 3.6394 0
M  V30 47 Fe 4.5086 -1.6295 4.5524 0
M  V30 48 Ag 5.7927 0.1463 5.4632 0
M  V30 49 Ag -0.8908 0.0885 7.2902 0
M  V30 50 Fe -0.1327 2.0710 6.2344 0
M  V30 51 Ag 0.8954 3.8041 4.9860 0
M  V30 52 Ag -2.4543 -3.0709 -1.6929 0
M  V30 53 Fe -1.8245 -2.9283 -3.9801 0
M  V30 54 Ag -1.2050 -2.8676 -6.2738 0
M  V30 55 Ag 0.6597 -1.3554 -6.7230 0
M  V30 56 Fe 1.3624 -0.5970 -4.5870 0
M  V30 57 Ag 1.9482 0.1456 -2.4104 0
M  V30 58 Ag -3.2121 -2.2890 1.6242 0
M  V30 59 Fe -2.5739 -2.0470 3.8981 0
M  V30 60 Ag -1.8843 -1.8053 6.1570 0
M  V30 61 Ag 4.9873 1.1154 7.4120 0
M  V30 62 Fe 2.9929 -0.0739 7.9155 0
M  V30 63 Ag 0.9239 -1.2212 8.1369 0
M  V30 64 Ba 0.8886 0.6897 0.8737 0
M  V30 65 Ga 1.1435 1.6551 1.9613 0
M  V30 66 Ba 1.3065 2.5643 3.1128 0
M  V30 67 Ba -4.1283 0.0417 -8.9225 0
M  V30 68 Ga -3.2469 -1.1245 -8.7373 0
M  V30 69 Ba -2.2433 -2.1676 -8.4617 0
M  V30 70 Ba -2.7494 3.4007 -4.6325 0
M  V30 71 Ga -2.9096 3.2649 -6.0927 0
M  V30 72 Ba -3.1012 3.0566 -7.5404 0
M  V30 73 Ba 5.3511 3.4767 6.3614 0
M  V30 74 Ga 4.2858 4.2500 5.6988 0
M  V30 75 Ba 3.1739 4.8384 4.9314 0
M  V30 76 Ba -4.6357 1.9648 -4.2273 0
M  V30 77 Ga -4.8484 1.7748 -5.6743 0
M  V30 78 Ba -4.9822 1.5971 -7.1321 0
M  V30 79 Ba -1.7939 2.9226 -2.4195 0
M  V30 80 Ga -0.5655 2.4013 -1.7865 0
M  V30 81 Ba 0.6814 1.9467 -1.1385 0
M  V30 82 Ba -2.3061 1.4974 -9.3492 0
M  V30 83 Ga -1.3086 0.4243 -9.1991 0
M  V30 84 Ba -0.4240 -0.7150 -8.9010 0
M  V30 85 Ba 1.1404 -4.5247 4.5196 0
M  V30 86 Ga 0.5487 -3.9003 5.7220 0
M  V30 87 Ba -0.0432 -3.2673 6.9197 0
M  V30 88 Ba 0.3271 -4.7354 2.1432 0
M  V30 89 Ga -0.8383 -4.3572 1.3200 0
M  V30 90 Ba -2.0146 -4.0238 0.4927 0
M  V30 91 Ba -3.8617 1.4168 -1.9741 0
M  V30 92 Ga -3.7020 0.1458 -1.2368 0
M  V30 93 Ba -3.6731 -1.0832 -0.4164 0
M  V30 94 Ba 5.9662 2.3963 4.3579 0
M  V30 95 Ga 4.8919 3.0343 3.5737 0
M  V30 96 Ba 3.6969 3.6466 2.9631 0
M  V30 97 Ba 2.3153 -3.4358 1.3992 0
M  V30 98 Ga 2.2246 -2.2614 0.5074 0
M  V30 99 Ba 2.2012 -1.1334 -0.4462 0
M  V30 END ATOM
M  V30 BEGIN BOND
M  V30 1 1 1 2
M  V30 2 1 1 3
M  V30 3 1 1 4
M  V30 4 1 1 5
M  V30 5 1 6 7
M  V30 6 1 6 8
M  V30 7 1 6 9
M  V30 8 1 6 10
M  V30 9 1 11 12
M  V30 10 1 11 13
M  V30 11 1 11 14
M  V30 12 1 11 15
M  V30 13 1 16 17
M  V30 14 1 16 18
M  V30 15 1 16 19
M  V30 16 1 16 20
M  V30 17 1 21 22
M  V30 18 1 21 23
M  V30 19 1 21 24
M  V30 20 1 21 25
M  V30 21 1 26 27
M  V30 22 1 26 28
M  V30 23 1 26 29
M  V30 24 1 26 30
M  V30 25 1 31 32
M  V30 26 1 31 33
M  V30 27 1 31 34
M  V30 28 1 31 35
M  V30 29 1 36 37
M  V30 30 1 36 38
M  V30 31 1 36 39
M  V30 32 1 36 40
M  V30 33 1 41 42
M  V30 34 1 41 43
M  V30 35 1 41 44
M  V30 36 1 41 45
M  V30 37 1 46 47
M  V30 38 1 47 48
M  V30 39 1 49 50
M  V30 40 1 50 51
M  V30 41 1 52 53
M  V30 42 1 53 54
M  V30 43 1 55 56
M  V30 44 1 56 57
M  V30 45 1 58 59
M  V30 46 1 59 60
M  V30 47 1 61 62
M  V30 48 1 62 63
M  V30 49 1 64 65
M  V30 50 1 65 66
M  V30 51 1 67 68
M  V30 52 1 68 69
M  V30 53 1 70 71
M  V30 54 1 71 72
M  V30 55 1 73 74
M  V30 56 1 74 75
M  V30 57 1 76 77
M  V30 58 1 77 78
M  V30 59 1 79 80
M  V30 60 1 80 81
M  V30 61 1 82 83
M  V30 62 1 83 84
M  V30 63 1 85 86
M  V30 64 1 86 87
M  V30 65 1 88 89
M  V30 66 1 89 90
M  V30 67 1 91 92
M  V30 68 1 92 93
M  V30 69 1 94 95
M  V30 70 1 95 96
M  V30 71 1 97 98
M  V30 72 1 98 99
M  V30 73 1 2 91
M  V30 74 1 3 70
M  V30 75 1 4 76
M  V30 76 1 5 79
M  V30 77 1 7 82
M  V30 78 1 8 78
M  V30 79 1 9 72
M  V30 80 1 10 67
M  V30 81 1 12 85
M  V30 82 1 13 97
M  V30 83 1 14 46
M  V30 84 1 15 88
M  V30 85 1 17 94
M  V30 86 1 18 61
M  V30 87 1 19 73
M  V30 88 1 20 48
M  V30 89 1 22 58
M  V30 90 1 23 52
M  V30 91 1 24 90
M  V30 92 1 25 93
M  V30 93 1 27 84
M  V30 94 1 28 55
M  V30 95 1 29 69
M  V30 96 1 30 54
M  V30 97 1 32 60
M  V30 98 1 33 49
M  V30 99 1 34 87
M  V30 100 1 35 63
M  V30 101 1 37 64
M  V30 102 1 38 99
M  V30 103 1 39 81
M  V30 104 1 40 57
M  V30 105 1 42 75
M  V30 106 1 43 96
M  V30 107 1 44 51
M  V30 108 1 45 66
M  V30 END BOND
M  V30 END CTAB
M  END

$$$$
