
     RDKit          3D

  0  0  0  0  0  0  0  0  0  0999 V3000
M  V30 BEGIN CTAB
M  V30 COUNTS 99 108 0 0 0
M  V30 BEGIN ATOM
M  V30 1 Pd -1.6411 4.0499 -1.4104 0
M  V30 2 Pb -2.5135 3.6630 -1.1123 0
M  V30 3 Pb -1.9100 3.9313 -2.3700 0
M  V30 4 Pb -1.3810 4.2110 -0.4579 0
M  V30 5 Pb -0.7568 4.4197 -1.6838 0
M  V30 6 Pd 0.9659 -2.6433 -7.7644 0
M  V30 7 Pb 1.1394 -3.2405 -6.9830 0
M  V30 8 Pb 0.8448 -1.9968 -8.5086 0
M  V30 9 Pb 1.9373 -2.6304 -7.9802 0
M  V30 10 Pb 0.0215 -2.4654 -7.4792 0
M  V30 11 Pd -1.9117 -4.3615 4.6656 0
M  V30 12 Pb -2.4617 -3.8535 5.3335 0
M  V30 13 Pb -1.3492 -4.8156 3.9779 0
M  V30 14 Pb -1.2028 -4.5835 5.3376 0
M  V30 15 Pb -2.6006 -4.1577 3.9724 0
M  V30 16 Pd 1.8628 -1.5961 7.0378 0
M  V30 17 Pb 1.7686 -2.5891 7.0250 0
M  V30 18 Pb 1.2661 -1.5832 7.8325 0
M  V30 19 Pb 2.4772 -1.6084 6.2459 0
M  V30 20 Pb 1.8514 -0.5813 7.0265 0
M  V30 21 Pd 3.5831 -3.0820 -0.4564 0
M  V30 22 Pb 3.2857 -3.4628 -1.3326 0
M  V30 23 Pb 2.9988 -3.7558 -0.0067 0
M  V30 24 Pb 3.8533 -2.7217 0.4381 0
M  V30 25 Pb 4.1674 -2.4024 -0.9066 0
M  V30 26 Pd -1.6747 2.9954 6.4428 0
M  V30 27 Pb -1.9372 2.5624 7.2979 0
M  V30 28 Pb -2.6396 3.1690 6.2567 0
M  V30 29 Pb -1.4048 3.4384 5.5877 0
M  V30 30 Pb -0.7103 2.7245 6.6092 0
M  V30 31 Pd -5.0287 -0.1688 3.9433 0
M  V30 32 Pb -5.1919 0.3371 3.0966 0
M  V30 33 Pb -5.1347 0.6886 4.4499 0
M  V30 34 Pb -4.9323 -1.0146 3.4222 0
M  V30 35 Pb -4.8167 -0.6827 4.7792 0
M  V30 36 Pd 4.4888 2.6930 -5.4853 0
M  V30 37 Pb 4.9597 2.1562 -4.7836 0
M  V30 38 Pb 3.9259 3.1926 -6.1491 0
M  V30 39 Pb 4.7556 1.9968 -6.1495 0
M  V30 40 Pb 4.1820 3.3550 -4.8082 0
M  V30 41 Pd -0.5816 2.0553 -6.9921 0
M  V30 42 Pb -0.1904 1.6370 -7.8075 0
M  V30 43 Pb -1.0876 2.5272 -6.2624 0
M  V30 44 Pb 0.0566 2.8192 -7.1195 0
M  V30 45 Pb -1.1441 1.2294 -6.8728 0
M  V30 46 Ag 1.3202 -3.6585 -6.3885 0
M  V30 47 Fe 2.1702 -3.7219 -4.1719 0
M  V30 48 Ag 3.0224 -3.7876 -1.9562 0
M  V30 49 Ag -3.1549 3.3604 -0.8686 0
M  V30 50 Fe -4.2622 2.0489 0.7725 0
M  V30 51 Ag -5.2799 0.7264 2.4620 0
M  V30 52 Ag 4.6126 -1.8838 -1.2226 0
M  V30 53 Fe 4.9609 -0.0834 -2.7359 0
M  V30 54 Ag 5.2698 1.7136 -4.2617 0
M  V30 55 Ag 2.9517 -1.6000 5.6622 0
M  V30 56 Fe 3.4844 -2.0370 3.3870 0
M  V30 57 Ag 4.0461 -2.4623 1.1166 0
M  V30 58 Ag 0.7669 -1.4622 8.3650 0
M  V30 59 Fe -0.8648 0.2180 8.5963 0
M  V30 60 Ag -2.0240 2.1448 7.9023 0
M  V30 61 Ag 2.6468 -2.4349 -8.0930 0
M  V30 62 Fe 3.9885 -0.5867 -7.4615 0
M  V30 63 Ag 4.9142 1.4142 -6.5913 0
M  V30 64 Ag -1.1688 4.3696 0.2443 0
M  V30 65 Fe -1.2090 4.0351 2.5956 0
M  V30 66 Ag -1.1821 3.7773 4.9568 0
M  V30 67 Ag -0.0760 4.6707 -1.8601 0
M  V30 68 Fe 1.9389 4.3287 -3.0605 0
M  V30 69 Ag 3.8812 3.8381 -4.3270 0
M  V30 70 Ag -0.8977 -5.1182 3.4645 0
M  V30 71 Fe 0.8264 -4.7355 1.8798 0
M  V30 72 Ag 2.5488 -4.2576 0.3193 0
M  V30 73 Ba -3.1162 -3.9957 3.4548 0
M  V30 74 Ga -3.9934 -2.8349 3.2300 0
M  V30 75 Ba -4.8525 -1.6542 3.0425 0
M  V30 76 Ba -0.6574 -2.2219 -7.2612 0
M  V30 77 Ga -1.1325 -0.8376 -7.0210 0
M  V30 78 Ba -1.5216 0.5772 -6.8041 0
M  V30 79 Ba 0.7935 -1.4536 -9.0127 0
M  V30 80 Ga 0.4254 -0.0513 -8.7903 0
M  V30 81 Ba 0.0418 1.3215 -8.4434 0
M  V30 82 Ba -2.8882 -3.4446 5.8013 0
M  V30 83 Ga -3.7658 -2.2676 5.6108 0
M  V30 84 Ba -4.6358 -1.0907 5.3869 0
M  V30 85 Ba 1.8422 0.1835 7.0238 0
M  V30 86 Ga 0.8834 1.3185 6.8687 0
M  V30 87 Ba 0.0199 2.5295 6.7292 0
M  V30 88 Ba -0.6356 -4.7776 5.7916 0
M  V30 89 Ga 0.4966 -4.0700 6.4192 0
M  V30 90 Ba 1.6108 -3.3203 7.0296 0
M  V30 91 Ba 3.4547 3.5923 -6.5814 0
M  V30 92 Ga 2.0194 3.4744 -6.9275 0
M  V30 93 Ba 0.5831 3.3396 -7.2630 0
M  V30 94 Ba -2.1562 3.8825 -3.0801 0
M  V30 95 Ga -1.7695 3.3498 -4.4060 0
M  V30 96 Ba -1.5575 2.8935 -5.7979 0
M  V30 97 Ba -3.3733 3.2285 6.1236 0
M  V30 98 Ga -4.3150 2.3062 5.4618 0
M  V30 99 Ba -5.2194 1.3521 4.7928 0
M  V30 END ATOM
M  V30 BEGIN BOND
M  V30 1 1 1 2
M  V30 2 1 1 3
M  V30 3 1 1 4
M  V30 4 1 1 5
M  V30 5 1 6 7
M  V30 6 1 6 8
M  V30 7 1 6 9
M  V30 8 1 6 10
M  V30 9 1 11 12
M  V30 10 1 11 13
M  V30 11 1 11 14
M  V30 12 1 11 15
M  V30 13 1 16 17
M  V30 14 1 16 18
M  V30 15 1 16 19
M  V30 16 1 16 20
M  V30 17 1 21 22
M  V30 18 1 21 23
M  V30 19 1 21 24
M  V30 20 1 21 25
M  V30 21 1 26 27
M  V30 22 1 26 28
M  V30 23 1 26 29
M  V30 24 1 26 30
M  V30 25 1 31 32
M  V30 26 1 31 33
M  V30 27 1 31 34
M  V30 28 1 31 35
M  V30 29 1 36 37
M  V30 30 1 36 38
M  V30 31 1 36 39
M  V30 32 1 36 40
M  V30 33 1 41 42
M  V30 34 1 41 43
M  V30 35 1 41 44
M  V30 36 1 41 45
M  V30 37 1 46 47
M  V30 38 1 47 48
M  V30 39 1 49 50
M  V30 40 1 50 51
M  V30 41 1 52 53
M  V30 42 1 53 54
M  V30 43 1 55 56
M  V30 44 1 56 57
M  V30 45 1 58 59
M  V30 46 1 59 60
M  V30 47 1 61 62
M  V30 48 1 62 63
M  V30 49 1 64 65
M  V30 50 1 65 66
M  V30 51 1 67 68
M  V30 52 1 68 69
M  V30 53 1 70 71
M  V30 54 1 71 72
M  V30 55 1 73 74
M  V30 56 1 74 75
M  V30 57 1 76 77
M  V30 58 1 77 78
M  V30 59 1 79 80
M  V30 60 1 80 81
M  V30 61 1 82 83
M  V30 62 1 83 84
M  V30 63 1 85 86
M  V30 64 1 86 87
M  V30 65 1 88 89
M  V30 66 1 89 90
M  V30 67 1 91 92
M  V30 68 1 92 93
M  V30 69 1 94 95
M  V30 70 1 95 96
M  V30 71 1 97 98
M  V30 72 1 98 99
M  V30 73 1 2 49
M  V30 74 1 3 94
M  V30 75 1 4 64
M  V30 76 1 5 67
M  V30 77 1 7 46
M  V30 78 1 8 79
M  V30 79 1 9 61
M  V30 80 1 10 76
M  V30 81 1 12 82
M  V30 82 1 13 70
M  V30 83 1 14 88
M  V30 84 1 15 73
M  V30 85 1 17 90
M  V30 86 1 18 58
M  V30 87 1 19 55
M  V30 88 1 20 85
M  V30 89 1 22 48
M  V30 90 1 23 72
M  V30 91 1 24 57
M  V30 92 1 25 52
M  V30 93 1 27 60
M  V30 94 1 28 97
M  V30 95 1 29 66
M  V30 96 1 30 87
M  V30 97 1 32 51
M  V30 98 1 33 99
M  V30 99 1 34 75
M  V30 100 1 35 84
M  V30 101 1 37 54
M  V30 102 1 38 91
M  V30 103 1 39 63
M  V30 104 1 40 69
M  V30 105 1 42 81
M  V30 106 1 43 96
M  V30 107 1 44 93
M  V30 108 1 45 78
M  V30 END BOND
M  V30 END CTAB
M  END

$$$$
