
     RDKit          3D

  0  0  0  0  0  0  0  0  0  0999 V3000
M  V30 BEGIN CTAB
M  V30 COUNTS 99 108 0 0 0
M  V30 BEGIN ATOM
M  V30 1 Pd -3.0767 2.6454 -1.9869 0
M  V30 2 Pb -3.6930 3.3068 -1.5575 0
M  V30 3 Pb -3.5168 1.9293 -1.4407 0
M  V30 4 Pb -2.6209 3.3635 -2.5103 0
M  V30 5 Pb -2.4003 2.0259 -2.3873 0
M  V30 6 Pd -3.0122 -6.4202 -1.8685 0
M  V30 7 Pb -2.2205 -6.4910 -1.2601 0
M  V30 8 Pb -3.8185 -6.3455 -2.4522 0
M  V30 9 Pb -2.4621 -6.6902 -2.6637 0
M  V30 10 Pb -3.5783 -6.1141 -1.0975 0
M  V30 11 Pd 1.1060 0.8513 6.5217 0
M  V30 12 Pb 0.1392 0.8455 6.2533 0
M  V30 13 Pb 1.2242 -0.1294 6.3741 0
M  V30 14 Pb 2.0894 0.8855 6.6865 0
M  V30 15 Pb 1.0258 1.8430 6.5854 0
M  V30 16 Pd 6.5372 1.1581 1.8865 0
M  V30 17 Pb 6.5142 1.0163 2.8743 0
M  V30 18 Pb 6.4765 1.3584 0.9062 0
M  V30 19 Pb 6.6499 0.1723 1.7390 0
M  V30 20 Pb 6.4321 2.1402 2.0331 0
M  V30 21 Pd 3.8153 -3.9943 1.3173 0
M  V30 22 Pb 3.0009 -4.5698 1.2287 0
M  V30 23 Pb 3.5602 -3.8321 2.2714 0
M  V30 24 Pb 4.6718 -3.4751 1.3984 0
M  V30 25 Pb 4.0043 -4.1591 0.3510 0
M  V30 26 Pd 3.0917 6.4943 -1.4893 0
M  V30 27 Pb 3.6801 5.7581 -1.8335 0
M  V30 28 Pb 2.4486 7.1399 -1.0787 0
M  V30 29 Pb 2.4292 6.3776 -2.2257 0
M  V30 30 Pb 3.6980 6.5376 -0.6992 0
M  V30 31 Pd -2.7659 5.4906 2.6107 0
M  V30 32 Pb -3.4381 5.3822 1.8745 0
M  V30 33 Pb -2.3804 6.2971 2.1627 0
M  V30 34 Pb -2.0986 5.5877 3.3465 0
M  V30 35 Pb -3.0427 4.6348 3.0542 0
M  V30 36 Pd 0.1057 -3.6977 -5.1233 0
M  V30 37 Pb 0.9958 -3.9752 -4.7645 0
M  V30 38 Pb -0.7784 -3.3674 -5.4482 0
M  V30 39 Pb -0.1681 -4.6573 -5.2003 0
M  V30 40 Pb 0.3146 -2.7435 -4.9260 0
M  V30 41 Pd -5.8698 -2.4621 -1.9022 0
M  V30 42 Pb -6.1022 -3.2781 -2.4269 0
M  V30 43 Pb -5.5813 -1.6645 -1.3694 0
M  V30 44 Pb -5.6940 -2.0156 -2.7734 0
M  V30 45 Pb -5.8853 -3.0182 -1.0726 0
M  V30 46 Ag -1.6500 -6.5450 -0.7748 0
M  V30 47 Fe 0.3841 -5.7554 0.1662 0
M  V30 48 Ag 2.4167 -5.0380 1.1664 0
M  V30 49 Ag 4.0748 -4.2885 -0.3826 0
M  V30 50 Fe 2.9459 -4.2512 -2.4698 0
M  V30 51 Ag 1.6581 -4.1483 -4.4606 0
M  V30 52 Ag 6.3721 1.6117 0.2048 0
M  V30 53 Fe 5.2943 3.3412 -1.0234 0
M  V30 54 Ag 4.1196 5.1677 -1.9956 0
M  V30 55 Ag 0.9158 2.5805 6.5441 0
M  V30 56 Fe -0.2861 4.2105 5.3108 0
M  V30 57 Ag -1.6080 5.5945 3.9107 0
M  V30 58 Ag -0.5660 0.9331 6.0019 0
M  V30 59 Fe -1.9673 2.3762 4.7303 0
M  V30 60 Ag -3.1365 3.9848 3.4233 0
M  V30 61 Ag 6.3376 2.8805 2.0871 0
M  V30 62 Fe 5.3026 4.7706 1.0964 0
M  V30 63 Ag 4.1468 6.4549 -0.1083 0
M  V30 64 Ag 2.8365 0.8740 6.7083 0
M  V30 65 Fe 4.7370 0.9036 5.2892 0
M  V30 66 Ag 6.4147 0.9568 3.6133 0
M  V30 67 Ag -2.2136 3.8606 -2.8941 0
M  V30 68 Fe -0.2031 5.1200 -2.9184 0
M  V30 69 Ag 1.8589 6.2722 -2.6971 0
M  V30 70 Ag -1.8320 1.6553 -2.7102 0
M  V30 71 Fe -0.7275 -0.1895 -3.7177 0
M  V30 72 Ag 0.3886 -2.0283 -4.7236 0
M  V30 73 Ag -1.4247 -3.0304 -5.6177 0
M  V30 74 Fe -3.5038 -2.3270 -4.7221 0
M  V30 75 Ag -5.4458 -1.8414 -3.4533 0
M  V30 76 Ag 1.8990 7.5429 -0.7665 0
M  V30 77 Fe -0.0813 7.3450 0.5291 0
M  V30 78 Ag -2.0069 6.8557 1.8298 0
M  V30 79 Ag 1.4083 -0.8407 6.2275 0
M  V30 80 Fe 2.3425 -2.3259 4.6263 0
M  V30 81 Ag 3.2892 -3.7356 2.9653 0
M  V30 82 Ba -4.1407 3.7982 -1.2082 0
M  V30 83 Ga -4.0420 4.5564 0.0562 0
M  V30 84 Ba -3.9436 5.3146 1.3207 0
M  V30 85 Ba 6.7706 -0.5662 1.6548 0
M  V30 86 Ga 6.0010 -1.8253 1.5438 0
M  V30 87 Ba 5.3523 -3.1498 1.4242 0
M  V30 88 Ba -4.0259 -5.8592 -0.5462 0
M  V30 89 Ga -4.9342 -4.6956 -0.4638 0
M  V30 90 Ba -5.8048 -3.5016 -0.5055 0
M  V30 91 Ba -4.4449 -6.2530 -2.8503 0
M  V30 92 Ga -5.3741 -5.1130 -2.8839 0
M  V30 93 Ba -6.2114 -3.9053 -2.8185 0
M  V30 94 Ba -2.0730 -6.8777 -3.2816 0
M  V30 95 Ga -1.2244 -6.1436 -4.2452 0
M  V30 96 Ba -0.3808 -5.3777 -5.1878 0
M  V30 97 Ba -3.8677 1.4479 -0.9810 0
M  V30 98 Ga -4.6017 0.1661 -1.0156 0
M  V30 99 Ba -5.3517 -1.1037 -0.9248 0
M  V30 END ATOM
M  V30 BEGIN BOND
M  V30 1 1 1 2
M  V30 2 1 1 3
M  V30 3 1 1 4
M  V30 4 1 1 5
M  V30 5 1 6 7
M  V30 6 1 6 8
M  V30 7 1 6 9
M  V30 8 1 6 10
M  V30 9 1 11 12
M  V30 10 1 11 13
M  V30 11 1 11 14
M  V30 12 1 11 15
M  V30 13 1 16 17
M  V30 14 1 16 18
M  V30 15 1 16 19
M  V30 16 1 16 20
M  V30 17 1 21 22
M  V30 18 1 21 23
M  V30 19 1 21 24
M  V30 20 1 21 25
M  V30 21 1 26 27
M  V30 22 1 26 28
M  V30 23 1 26 29
M  V30 24 1 26 30
M  V30 25 1 31 32
M  V30 26 1 31 33
M  V30 27 1 31 34
M  V30 28 1 31 35
M  V30 29 1 36 37
M  V30 30 1 36 38
M  V30 31 1 36 39
M  V30 32 1 36 40
M  V30 33 1 41 42
M  V30 34 1 41 43
M  V30 35 1 41 44
M  V30 36 1 41 45
M  V30 37 1 46 47
M  V30 38 1 47 48
M  V30 39 1 49 50
M  V30 40 1 50 51
M  V30 41 1 52 53
M  V30 42 1 53 54
M  V30 43 1 55 56
M  V30 44 1 56 57
M  V30 45 1 58 59
M  V30 46 1 59 60
M  V30 47 1 61 62
M  V30 48 1 62 63
M  V30 49 1 64 65
M  V30 50 1 65 66
M  V30 51 1 67 68
M  V30 52 1 68 69
M  V30 53 1 70 71
M  V30 54 1 71 72
M  V30 55 1 73 74
M  V30 56 1 74 75
M  V30 57 1 76 77
M  V30 58 1 77 78
M  V30 59 1 79 80
M  V30 60 1 80 81
M  V30 61 1 82 83
M  V30 62 1 83 84
M  V30 63 1 85 86
M  V30 64 1 86 87
M  V30 65 1 88 89
M  V30 66 1 89 90
M  V30 67 1 91 92
M  V30 68 1 92 93
M  V30 69 1 94 95
M  V30 70 1 95 96
M  V30 71 1 97 98
M  V30 72 1 98 99
M  V30 73 1 2 82
M  V30 74 1 3 97
M  V30 75 1 4 67
M  V30 76 1 5 70
M  V30 77 1 7 46
M  V30 78 1 8 91
M  V30 79 1 9 94
M  V30 80 1 10 88
M  V30 81 1 12 58
M  V30 82 1 13 79
M  V30 83 1 14 64
M  V30 84 1 15 55
M  V30 85 1 17 66
M  V30 86 1 18 52
M  V30 87 1 19 85
M  V30 88 1 20 61
M  V30 89 1 22 48
M  V30 90 1 23 81
M  V30 91 1 24 87
M  V30 92 1 25 49
M  V30 93 1 27 54
M  V30 94 1 28 76
M  V30 95 1 29 69
M  V30 96 1 30 63
M  V30 97 1 32 84
M  V30 98 1 33 78
M  V30 99 1 34 57
M  V30 100 1 35 60
M  V30 101 1 37 51
M  V30 102 1 38 73
M  V30 103 1 39 96
M  V30 104 1 40 72
M  V30 105 1 42 93
M  V30 106 1 43 99
M  V30 107 1 44 75
M  V30 108 1 45 90
M  V30 END BOND
M  V30 END CTAB
M  END

$$$$
