
     RDKit          3D

  0  0  0  0  0  0  0  0  0  0999 V3000
M  V30 BEGIN CTAB
M  V30 COUNTS 99 108 0 0 0
M  V30 BEGIN ATOM
M  V30 1 Pd -6.9165 2.5940 -2.6785 0
M  V30 2 Pb -6.6415 1.6394 -2.6015 0
M  V30 3 Pb -6.7334 2.7678 -1.7077 0
M  V30 4 Pb -7.0601 3.5675 -2.8381 0
M  V30 5 Pb -7.0725 2.4388 -3.6555 0
M  V30 6 Pd 2.2082 -5.7678 2.8343 0
M  V30 7 Pb 3.1817 -5.9375 2.9477 0
M  V30 8 Pb 2.2799 -5.1205 3.5942 0
M  V30 9 Pb 1.2295 -5.5888 2.7535 0
M  V30 10 Pb 2.2436 -6.2121 1.9403 0
M  V30 11 Pd -2.8064 3.7514 1.4076 0
M  V30 12 Pb -2.5565 4.2821 0.5986 0
M  V30 13 Pb -3.7588 3.6326 1.1052 0
M  V30 14 Pb -1.8722 3.9169 1.7469 0
M  V30 15 Pb -3.0546 3.1690 2.1808 0
M  V30 16 Pd -3.9524 4.2809 -5.8062 0
M  V30 17 Pb -3.2855 3.6430 -6.1982 0
M  V30 18 Pb -3.2607 4.7231 -5.2426 0
M  V30 19 Pb -4.6346 4.8844 -5.3895 0
M  V30 20 Pb -4.6980 3.7800 -6.2378 0
M  V30 21 Pd 6.5967 -1.0521 1.9201 0
M  V30 22 Pb 6.9705 -1.8872 2.3077 0
M  V30 23 Pb 6.1325 -0.2722 1.4976 0
M  V30 24 Pb 7.0086 -1.3433 1.0580 0
M  V30 25 Pb 6.0428 -0.9604 2.7489 0
M  V30 26 Pd 2.1988 1.6089 3.3343 0
M  V30 27 Pb 2.5375 0.6936 3.5753 0
M  V30 28 Pb 1.7815 2.4868 3.0874 0
M  V30 29 Pb 2.7693 1.6269 2.5107 0
M  V30 30 Pb 1.7053 1.6255 4.1997 0
M  V30 31 Pd 3.8673 -3.2856 -1.5585 0
M  V30 32 Pb 2.8856 -3.0644 -1.7288 0
M  V30 33 Pb 3.6102 -4.2162 -1.2621 0
M  V30 34 Pb 4.1329 -2.3971 -1.9058 0
M  V30 35 Pb 4.8510 -3.4150 -1.4179 0
M  V30 36 Pd -0.6273 -2.0046 5.1217 0
M  V30 37 Pb -1.5592 -1.6582 5.1430 0
M  V30 38 Pb -0.3839 -1.2112 5.6697 0
M  V30 39 Pb 0.3476 -2.1894 4.9904 0
M  V30 40 Pb -0.8854 -2.7724 4.5353 0
M  V30 41 Pd -0.5871 -0.2197 -4.4837 0
M  V30 42 Pb -1.4953 -0.5762 -4.2698 0
M  V30 43 Pb 0.3006 0.1951 -4.6279 0
M  V30 44 Pb -0.9465 0.3772 -5.2077 0
M  V30 45 Pb -0.2010 -0.8535 -3.7799 0
M  V30 46 Ag 3.9178 -5.9596 3.0482 0
M  V30 47 Fe 5.7550 -4.4808 2.9010 0
M  V30 48 Ag 7.1060 -2.5747 2.5505 0
M  V30 49 Ag -2.3274 4.6416 -0.0179 0
M  V30 50 Fe -2.4867 4.9179 -2.3688 0
M  V30 51 Ag -2.8284 5.0229 -4.7138 0
M  V30 52 Ag -6.3397 0.9584 -2.6483 0
M  V30 53 Fe -4.3111 -0.0747 -3.3136 0
M  V30 54 Ag -2.1722 -0.7990 -4.0398 0
M  V30 55 Ag -3.2886 2.6827 2.7014 0
M  V30 56 Fe -2.8733 0.7193 3.9661 0
M  V30 57 Ag -2.1752 -1.2417 5.1024 0
M  V30 58 Ag 2.4500 -4.5382 4.0374 0
M  V30 59 Fe 3.9360 -2.6861 3.9247 0
M  V30 60 Ag 5.5678 -1.0659 3.3217 0
M  V30 61 Ag 4.2596 -1.7537 -2.2436 0
M  V30 62 Fe 2.9447 -0.3133 -3.5569 0
M  V30 63 Ag 0.9925 0.4490 -4.6224 0
M  V30 64 Ba -1.1786 4.1261 1.9681 0
M  V30 65 Ga 0.1156 3.5807 2.4406 0
M  V30 66 Ba 1.4475 3.1403 2.9185 0
M  V30 67 Ba -7.0680 4.2848 -3.0461 0
M  V30 68 Ga -6.1564 4.8824 -4.0374 0
M  V30 69 Ba -5.1628 5.2932 -5.0452 0
M  V30 70 Ba -7.1452 2.3479 -4.3976 0
M  V30 71 Ga -6.2812 2.8257 -5.4910 0
M  V30 72 Ba -5.3006 3.3865 -6.4359 0
M  V30 73 Ba 1.3684 1.6061 4.8654 0
M  V30 74 Ga 0.5707 0.5540 5.5054 0
M  V30 75 Ba -0.2093 -0.5775 6.0186 0
M  V30 76 Ba 0.4972 -5.4365 2.7333 0
M  V30 77 Ga -0.3103 -4.3962 3.3945 0
M  V30 78 Ba -1.0731 -3.3370 4.0787 0
M  V30 79 Ba 2.3488 -6.4422 1.2333 0
M  V30 80 Ga 2.8645 -5.6890 0.0641 0
M  V30 81 Ba 3.3846 -4.9225 -1.0946 0
M  V30 82 Ba 5.7370 0.2812 1.1783 0
M  V30 83 Ga 4.4857 0.9793 1.5393 0
M  V30 84 Ba 3.2329 1.6645 1.9195 0
M  V30 85 Ba -2.8103 3.1517 -6.5132 0
M  V30 86 Ga -1.9983 1.9859 -6.0991 0
M  V30 87 Ba -1.1540 0.8109 -5.7895 0
M  V30 88 Ba -6.6222 2.9196 -0.9786 0
M  V30 89 Ga -5.5061 3.2221 -0.0537 0
M  V30 90 Ba -4.4991 3.5368 0.9851 0
M  V30 91 Ba 2.1368 -2.9058 -1.8132 0
M  V30 92 Ga 1.1506 -2.0859 -2.5897 0
M  V30 93 Ba 0.0096 -1.3624 -3.2395 0
M  V30 94 Ba 2.7376 -0.0078 3.7726 0
M  V30 95 Ga 1.9594 -1.1458 4.3142 0
M  V30 96 Ba 1.0862 -2.2146 4.8514 0
M  V30 97 Ba 7.2488 -1.7162 0.4525 0
M  V30 98 Ga 6.4738 -2.5572 -0.4856 0
M  V30 99 Ba 5.6010 -3.3667 -1.3639 0
M  V30 END ATOM
M  V30 BEGIN BOND
M  V30 1 1 1 2
M  V30 2 1 1 3
M  V30 3 1 1 4
M  V30 4 1 1 5
M  V30 5 1 6 7
M  V30 6 1 6 8
M  V30 7 1 6 9
M  V30 8 1 6 10
M  V30 9 1 11 12
M  V30 10 1 11 13
M  V30 11 1 11 14
M  V30 12 1 11 15
M  V30 13 1 16 17
M  V30 14 1 16 18
M  V30 15 1 16 19
M  V30 16 1 16 20
M  V30 17 1 21 22
M  V30 18 1 21 23
M  V30 19 1 21 24
M  V30 20 1 21 25
M  V30 21 1 26 27
M  V30 22 1 26 28
M  V30 23 1 26 29
M  V30 24 1 26 30
M  V30 25 1 31 32
M  V30 26 1 31 33
M  V30 27 1 31 34
M  V30 28 1 31 35
M  V30 29 1 36 37
M  V30 30 1 36 38
M  V30 31 1 36 39
M  V30 32 1 36 40
M  V30 33 1 41 42
M  V30 34 1 41 43
M  V30 35 1 41 44
M  V30 36 1 41 45
M  V30 37 1 46 47
M  V30 38 1 47 48
M  V30 39 1 49 50
M  V30 40 1 50 51
M  V30 41 1 52 53
M  V30 42 1 53 54
M  V30 43 1 55 56
M  V30 44 1 56 57
M  V30 45 1 58 59
M  V30 46 1 59 60
M  V30 47 1 61 62
M  V30 48 1 62 63
M  V30 49 1 64 65
M  V30 50 1 65 66
M  V30 51 1 67 68
M  V30 52 1 68 69
M  V30 53 1 70 71
M  V30 54 1 71 72
M  V30 55 1 73 74
M  V30 56 1 74 75
M  V30 57 1 76 77
M  V30 58 1 77 78
M  V30 59 1 79 80
M  V30 60 1 80 81
M  V30 61 1 82 83
M  V30 62 1 83 84
M  V30 63 1 85 86
M  V30 64 1 86 87
M  V30 65 1 88 89
M  V30 66 1 89 90
M  V30 67 1 91 92
M  V30 68 1 92 93
M  V30 69 1 94 95
M  V30 70 1 95 96
M  V30 71 1 97 98
M  V30 72 1 98 99
M  V30 73 1 2 52
M  V30 74 1 3 88
M  V30 75 1 4 67
M  V30 76 1 5 70
M  V30 77 1 7 46
M  V30 78 1 8 58
M  V30 79 1 9 76
M  V30 80 1 10 79
M  V30 81 1 12 49
M  V30 82 1 13 90
M  V30 83 1 14 64
M  V30 84 1 15 55
M  V30 85 1 17 85
M  V30 86 1 18 51
M  V30 87 1 19 69
M  V30 88 1 20 72
M  V30 89 1 22 48
M  V30 90 1 23 82
M  V30 91 1 24 97
M  V30 92 1 25 60
M  V30 93 1 27 94
M  V30 94 1 28 66
M  V30 95 1 29 84
M  V30 96 1 30 73
M  V30 97 1 32 91
M  V30 98 1 33 81
M  V30 99 1 34 61
M  V30 100 1 35 99
M  V30 101 1 37 57
M  V30 102 1 38 75
M  V30 103 1 39 96
M  V30 104 1 40 78
M  V30 105 1 42 54
M  V30 106 1 43 63
M  V30 107 1 44 87
M  V30 108 1 45 93
M  V30 END BOND
M  V30 END CTAB
M  END

$$$$
