
     RDKit          3D

  0  0  0  0  0  0  0  0  0  0999 V3000
M  V30 BEGIN CTAB
M  V30 COUNTS 99 108 0 0 0
M  V30 BEGIN ATOM
M  V30 1 Pd 8.0135 2.9452 -0.2549 0
M  V30 2 Pb 7.0959 3.3245 -0.1290 0
M  V30 3 Pb 7.6508 2.0275 -0.4924 0
M  V30 4 Pb 8.3621 3.8551 -0.4797 0
M  V30 5 Pb 8.9429 2.5871 -0.3116 0
M  V30 6 Pd 2.1250 -1.4474 2.3562 0
M  V30 7 Pb 2.3609 -1.9428 1.5040 0
M  V30 8 Pb 1.8613 -0.8602 3.1200 0
M  V30 9 Pb 2.9985 -0.9743 2.3092 0
M  V30 10 Pb 1.2576 -1.9444 2.3895 0
M  V30 11 Pd -6.5349 -1.6686 -0.0196 0
M  V30 12 Pb -5.7683 -2.2842 -0.2040 0
M  V30 13 Pb -5.8752 -0.9106 0.0320 0
M  V30 14 Pb -7.1748 -2.4416 0.0026 0
M  V30 15 Pb -7.3247 -1.0645 0.1147 0
M  V30 16 Pd -3.3671 -0.9164 3.6685 0
M  V30 17 Pb -3.2782 -0.3240 2.8674 0
M  V30 18 Pb -3.6680 -1.5836 4.3504 0
M  V30 19 Pb -2.7116 -1.5705 3.2922 0
M  V30 20 Pb -4.0422 -0.2938 4.0577 0
M  V30 21 Pd 0.2620 2.8045 1.2889 0
M  V30 22 Pb 0.0681 2.9596 0.3208 0
M  V30 23 Pb 0.4680 2.5701 2.2396 0
M  V30 24 Pb 1.1452 3.2591 1.1701 0
M  V30 25 Pb -0.6235 2.3498 1.3763 0
M  V30 26 Pd 7.6585 1.5223 -5.1056 0
M  V30 27 Pb 7.9712 2.4032 -5.4605 0
M  V30 28 Pb 6.7014 1.7701 -5.2546 0
M  V30 29 Pb 7.3917 0.8856 -4.3611 0
M  V30 30 Pb 8.6093 1.2355 -5.0108 0
M  V30 31 Pd -1.8539 -0.5568 -1.9485 0
M  V30 32 Pb -2.2556 -0.1904 -1.1103 0
M  V30 33 Pb -1.4120 -0.9230 -2.7679 0
M  V30 34 Pb -1.4942 0.3541 -2.1530 0
M  V30 35 Pb -2.2316 -1.4545 -1.7222 0
M  V30 36 Pd -9.7255 -2.1705 3.4714 0
M  V30 37 Pb -9.2064 -2.7303 4.1185 0
M  V30 38 Pb -9.7411 -2.9043 2.7941 0
M  V30 39 Pb -10.0242 -1.5395 2.7605 0
M  V30 40 Pb -9.5364 -1.3889 4.0573 0
M  V30 41 Pd 3.2391 -0.6484 -3.3193 0
M  V30 42 Pb 4.0339 -0.2993 -2.8340 0
M  V30 43 Pb 3.3635 0.0703 -4.0021 0
M  V30 44 Pb 2.4224 -0.9846 -3.7904 0
M  V30 45 Pb 3.1166 -1.3404 -2.5866 0
M  V30 46 Ag 8.5747 4.3997 -0.9503 0
M  V30 47 Fe 8.5682 4.2169 -3.3195 0
M  V30 48 Ag 8.2199 3.1079 -5.3920 0
M  V30 49 Ag 6.4324 3.6477 0.0105 0
M  V30 50 Fe 4.1134 3.5857 0.5233 0
M  V30 51 Ag 1.7936 3.6120 1.0356 0
M  V30 52 Ag 9.5953 2.2941 -0.5069 0
M  V30 53 Fe 10.1421 1.4452 -2.6262 0
M  V30 54 Ag 9.2955 1.0711 -4.7835 0
M  V30 55 Ag 3.6339 -0.6422 2.1232 0
M  V30 56 Fe 4.5382 -0.1332 0.0087 0
M  V30 57 Ag 4.5408 -0.0684 -2.3459 0
M  V30 58 Ag -4.6126 0.0832 4.3571 0
M  V30 59 Fe -6.9634 -0.1031 4.5643 0
M  V30 60 Ag -9.2139 -0.8186 4.4085 0
M  V30 61 Ag -4.0642 -2.0683 4.7647 0
M  V30 62 Fe -6.3395 -2.7458 4.8706 0
M  V30 63 Ag -8.6773 -3.0342 4.5564 0
M  V30 64 Ba 5.9788 1.9172 -5.3907 0
M  V30 65 Ga 4.7181 1.2931 -4.9495 0
M  V30 66 Ba 3.4856 0.6352 -4.4786 0
M  V30 67 Ba 2.5199 -2.3150 0.8563 0
M  V30 68 Ga 2.7777 -2.0341 -0.5871 0
M  V30 69 Ba 3.0481 -1.8782 -2.0470 0
M  V30 70 Ba 1.6666 -0.3411 3.6234 0
M  V30 71 Ga 1.1356 1.0093 3.3608 0
M  V30 72 Ba 0.6130 2.3199 2.9323 0
M  V30 73 Ba -5.3398 -0.3799 0.0976 0
M  V30 74 Ga -4.3163 -0.1088 1.1345 0
M  V30 75 Ba -3.3372 0.0727 2.2317 0
M  V30 76 Ba 7.4098 1.3751 -0.8225 0
M  V30 77 Ga 7.3080 0.9301 -2.2563 0
M  V30 78 Ba 7.2221 0.5239 -3.7027 0
M  V30 79 Ba -7.6724 -3.0032 0.0741 0
M  V30 80 Ga -8.6909 -3.2623 1.1132 0
M  V30 81 Ba -9.6584 -3.3829 2.2235 0
M  V30 82 Ba -0.0751 3.0203 -0.4123 0
M  V30 83 Ga -0.6528 2.0616 -1.3728 0
M  V30 84 Ba -1.2380 1.0494 -2.2721 0
M  V30 85 Ba -7.9626 -0.6723 0.1995 0
M  V30 86 Ga -9.0736 -0.8002 1.1632 0
M  V30 87 Ba -10.0923 -1.0485 2.2016 0
M  V30 88 Ba -5.1850 -2.7254 -0.3719 0
M  V30 89 Ga -3.8544 -2.4488 -0.9458 0
M  V30 90 Ba -2.5396 -2.1082 -1.5216 0
M  V30 91 Ba 0.6271 -2.3511 2.3812 0
M  V30 92 Ga -0.8000 -2.1827 2.7130 0
M  V30 93 Ba -2.2386 -2.0859 3.0232 0
M  V30 94 Ba -1.2865 2.0022 1.4058 0
M  V30 95 Ga -1.9373 1.0465 0.4923 0
M  V30 96 Ba -2.5201 0.0952 -0.4704 0
M  V30 97 Ba -1.0536 -1.1880 -3.3716 0
M  V30 98 Ga 0.3681 -1.2190 -3.7674 0
M  V30 99 Ba 1.7991 -1.2314 -4.1288 0
M  V30 END ATOM
M  V30 BEGIN BOND
M  V30 1 1 1 2
M  V30 2 1 1 3
M  V30 3 1 1 4
M  V30 4 1 1 5
M  V30 5 1 6 7
M  V30 6 1 6 8
M  V30 7 1 6 9
M  V30 8 1 6 10
M  V30 9 1 11 12
M  V30 10 1 11 13
M  V30 11 1 11 14
M  V30 12 1 11 15
M  V30 13 1 16 17
M  V30 14 1 16 18
M  V30 15 1 16 19
M  V30 16 1 16 20
M  V30 17 1 21 22
M  V30 18 1 21 23
M  V30 19 1 21 24
M  V30 20 1 21 25
M  V30 21 1 26 27
M  V30 22 1 26 28
M  V30 23 1 26 29
M  V30 24 1 26 30
M  V30 25 1 31 32
M  V30 26 1 31 33
M  V30 27 1 31 34
M  V30 28 1 31 35
M  V30 29 1 36 37
M  V30 30 1 36 38
M  V30 31 1 36 39
M  V30 32 1 36 40
M  V30 33 1 41 42
M  V30 34 1 41 43
M  V30 35 1 41 44
M  V30 36 1 41 45
M  V30 37 1 46 47
M  V30 38 1 47 48
M  V30 39 1 49 50
M  V30 40 1 50 51
M  V30 41 1 52 53
M  V30 42 1 53 54
M  V30 43 1 55 56
M  V30 44 1 56 57
M  V30 45 1 58 59
M  V30 46 1 59 60
M  V30 47 1 61 62
M  V30 48 1 62 63
M  V30 49 1 64 65
M  V30 50 1 65 66
M  V30 51 1 67 68
M  V30 52 1 68 69
M  V30 53 1 70 71
M  V30 54 1 71 72
M  V30 55 1 73 74
M  V30 56 1 74 75
M  V30 57 1 76 77
M  V30 58 1 77 78
M  V30 59 1 79 80
M  V30 60 1 80 81
M  V30 61 1 82 83
M  V30 62 1 83 84
M  V30 63 1 85 86
M  V30 64 1 86 87
M  V30 65 1 88 89
M  V30 66 1 89 90
M  V30 67 1 91 92
M  V30 68 1 92 93
M  V30 69 1 94 95
M  V30 70 1 95 96
M  V30 71 1 97 98
M  V30 72 1 98 99
M  V30 73 1 2 49
M  V30 74 1 3 76
M  V30 75 1 4 46
M  V30 76 1 5 52
M  V30 77 1 7 67
M  V30 78 1 8 70
M  V30 79 1 9 55
M  V30 80 1 10 91
M  V30 81 1 12 88
M  V30 82 1 13 73
M  V30 83 1 14 79
M  V30 84 1 15 85
M  V30 85 1 17 75
M  V30 86 1 18 61
M  V30 87 1 19 93
M  V30 88 1 20 58
M  V30 89 1 22 82
M  V30 90 1 23 72
M  V30 91 1 24 51
M  V30 92 1 25 94
M  V30 93 1 27 48
M  V30 94 1 28 64
M  V30 95 1 29 78
M  V30 96 1 30 54
M  V30 97 1 32 96
M  V30 98 1 33 97
M  V30 99 1 34 84
M  V30 100 1 35 90
M  V30 101 1 37 63
M  V30 102 1 38 81
M  V30 103 1 39 87
M  V30 104 1 40 60
M  V30 105 1 42 57
M  V30 106 1 43 66
M  V30 107 1 44 99
M  V30 108 1 45 69
M  V30 END BOND
M  V30 END CTAB
M  END

$$$$
