
     RDKit          3D

  0  0  0  0  0  0  0  0  0  0999 V3000
M  V30 BEGIN CTAB
M  V30 COUNTS 99 108 0 0 0
M  V30 BEGIN ATOM
M  V30 1 Pd -5.5940 -3.6099 2.7645 0
M  V30 2 Pb -6.0115 -2.7106 2.8997 0
M  V30 3 Pb -5.1696 -4.4988 2.5897 0
M  V30 4 Pb -6.4560 -3.9859 2.4268 0
M  V30 5 Pb -4.7039 -3.2269 3.0078 0
M  V30 6 Pd -5.6551 -5.6008 -1.5941 0
M  V30 7 Pb -4.7988 -5.5584 -2.1106 0
M  V30 8 Pb -6.4885 -5.5751 -1.0412 0
M  V30 9 Pb -5.2143 -6.1129 -0.8596 0
M  V30 10 Pb -6.0698 -5.0004 -2.2736 0
M  V30 11 Pd 3.2267 0.0316 4.3046 0
M  V30 12 Pb 2.9597 0.9742 4.4994 0
M  V30 13 Pb 3.4428 -0.9037 4.0275 0
M  V30 14 Pb 4.1098 0.3517 3.9655 0
M  V30 15 Pb 2.3178 -0.2549 4.5986 0
M  V30 16 Pd 6.6173 5.1399 -0.3411 0
M  V30 17 Pb 6.5790 5.9058 -0.9775 0
M  V30 18 Pb 5.9437 5.6029 0.2375 0
M  V30 19 Pb 7.1679 4.6195 -1.0180 0
M  V30 20 Pb 6.6826 4.3796 0.3054 0
M  V30 21 Pd -3.5217 0.8646 1.6492 0
M  V30 22 Pb -2.5939 0.9014 1.2732 0
M  V30 23 Pb -3.9013 1.2092 0.7898 0
M  V30 24 Pb -3.1253 0.4903 2.4845 0
M  V30 25 Pb -4.4393 0.7470 2.0273 0
M  V30 26 Pd -3.4507 -1.3393 -3.0173 0
M  V30 27 Pb -3.0776 -2.2481 -3.2077 0
M  V30 28 Pb -2.5480 -0.9779 -2.7774 0
M  V30 29 Pb -4.3512 -1.6815 -3.2875 0
M  V30 30 Pb -3.8452 -0.4539 -2.7716 0
M  V30 31 Pd 1.5432 3.7974 0.9553 0
M  V30 32 Pb 1.0166 2.9479 0.8831 0
M  V30 33 Pb 1.4713 3.8432 -0.0439 0
M  V30 34 Pb 1.6181 3.7217 1.9516 0
M  V30 35 Pb 2.1182 4.6187 1.0233 0
M  V30 36 Pd 1.4861 -1.9200 0.0998 0
M  V30 37 Pb 2.2297 -1.8925 -0.5690 0
M  V30 38 Pb 2.0715 -2.4112 0.7455 0
M  V30 39 Pb 0.7637 -1.9173 0.7932 0
M  V30 40 Pb 0.9299 -1.3804 -0.5350 0
M  V30 41 Pd 5.3768 2.4935 -4.8350 0
M  V30 42 Pb 6.3029 2.5929 -4.4471 0
M  V30 43 Pb 5.4593 3.3991 -5.2429 0
M  V30 44 Pb 4.3881 2.5546 -4.9334 0
M  V30 45 Pb 5.2812 1.5887 -4.4179 0
M  V30 46 Ag 4.7491 0.6221 3.6850 0
M  V30 47 Fe 5.7731 2.2070 2.2437 0
M  V30 48 Ag 6.7487 3.8107 0.7898 0
M  V30 49 Ag 2.7867 -1.8410 -1.0694 0
M  V30 50 Fe 4.0081 -0.4884 -2.5936 0
M  V30 51 Ag 5.1924 0.9129 -4.1029 0
M  V30 52 Ag 1.3949 3.7853 -0.7910 0
M  V30 53 Fe 2.3832 3.2595 -2.8867 0
M  V30 54 Ag 3.6681 2.7052 -4.8059 0
M  V30 55 Ag -4.0269 -2.9319 3.1346 0
M  V30 56 Fe -1.8832 -2.4219 2.2473 0
M  V30 57 Ag 0.2563 -1.9163 1.3474 0
M  V30 58 Ag 1.6085 -0.4129 4.7717 0
M  V30 59 Fe -0.6313 -0.1698 4.0318 0
M  V30 60 Ag -2.7689 0.2012 3.0743 0
M  V30 61 Ag 6.5287 6.3585 -1.5625 0
M  V30 62 Fe 6.0539 5.7886 -3.7946 0
M  V30 63 Ag 5.5440 4.1233 -5.3750 0
M  V30 64 Ba -6.3280 -4.4906 -2.7549 0
M  V30 65 Ga -5.7147 -3.2148 -3.1624 0
M  V30 66 Ba -5.0132 -1.9641 -3.5001 0
M  V30 67 Ba -4.8719 -5.1624 2.4061 0
M  V30 68 Ga -4.8460 -5.8572 1.1070 0
M  V30 69 Ba -4.9032 -6.4208 -0.2531 0
M  V30 70 Ba 7.5546 4.2222 -1.5472 0
M  V30 71 Ga 7.2487 3.4768 -2.8064 0
M  V30 72 Ba 6.9479 2.7301 -4.0660 0
M  V30 73 Ba -7.0564 -4.2926 2.0997 0
M  V30 74 Ga -7.1455 -4.9234 0.7699 0
M  V30 75 Ba -7.0754 -5.5198 -0.5770 0
M  V30 76 Ba -4.1728 1.4440 0.1306 0
M  V30 77 Ga -4.1694 0.8506 -1.2202 0
M  V30 78 Ba -4.1310 0.2010 -2.5442 0
M  V30 79 Ba -4.1590 -5.4659 -2.4930 0
M  V30 80 Ga -3.4648 -4.2386 -2.9313 0
M  V30 81 Ba -2.8507 -2.9545 -3.3236 0
M  V30 82 Ba 2.7167 1.6752 4.6017 0
M  V30 83 Ga 2.2092 2.6929 3.6610 0
M  V30 84 Ba 1.7052 3.6912 2.6980 0
M  V30 85 Ba -1.8899 -0.6500 -2.6230 0
M  V30 86 Ga -0.6825 -0.8547 -1.7975 0
M  V30 87 Ba 0.5740 -0.9355 -1.0255 0
M  V30 88 Ba -1.8910 0.8486 1.0115 0
M  V30 89 Ga -0.6424 1.6326 0.9162 0
M  V30 90 Ba 0.6686 2.2940 0.7527 0
M  V30 91 Ba -6.2955 -2.0203 2.9795 0
M  V30 92 Ga -5.7459 -0.6883 2.6642 0
M  V30 93 Ba -5.1142 0.5986 2.3172 0
M  V30 94 Ba 5.3839 5.9434 0.6069 0
M  V30 95 Ga 3.9743 5.5792 0.8753 0
M  V30 96 Ba 2.5641 5.2165 1.1423 0
M  V30 97 Ba 3.5628 -1.5936 3.7614 0
M  V30 98 Ga 3.0671 -2.2196 2.5218 0
M  V30 99 Ba 2.5125 -2.7375 1.2574 0
M  V30 END ATOM
M  V30 BEGIN BOND
M  V30 1 1 1 2
M  V30 2 1 1 3
M  V30 3 1 1 4
M  V30 4 1 1 5
M  V30 5 1 6 7
M  V30 6 1 6 8
M  V30 7 1 6 9
M  V30 8 1 6 10
M  V30 9 1 11 12
M  V30 10 1 11 13
M  V30 11 1 11 14
M  V30 12 1 11 15
M  V30 13 1 16 17
M  V30 14 1 16 18
M  V30 15 1 16 19
M  V30 16 1 16 20
M  V30 17 1 21 22
M  V30 18 1 21 23
M  V30 19 1 21 24
M  V30 20 1 21 25
M  V30 21 1 26 27
M  V30 22 1 26 28
M  V30 23 1 26 29
M  V30 24 1 26 30
M  V30 25 1 31 32
M  V30 26 1 31 33
M  V30 27 1 31 34
M  V30 28 1 31 35
M  V30 29 1 36 37
M  V30 30 1 36 38
M  V30 31 1 36 39
M  V30 32 1 36 40
M  V30 33 1 41 42
M  V30 34 1 41 43
M  V30 35 1 41 44
M  V30 36 1 41 45
M  V30 37 1 46 47
M  V30 38 1 47 48
M  V30 39 1 49 50
M  V30 40 1 50 51
M  V30 41 1 52 53
M  V30 42 1 53 54
M  V30 43 1 55 56
M  V30 44 1 56 57
M  V30 45 1 58 59
M  V30 46 1 59 60
M  V30 47 1 61 62
M  V30 48 1 62 63
M  V30 49 1 64 65
M  V30 50 1 65 66
M  V30 51 1 67 68
M  V30 52 1 68 69
M  V30 53 1 70 71
M  V30 54 1 71 72
M  V30 55 1 73 74
M  V30 56 1 74 75
M  V30 57 1 76 77
M  V30 58 1 77 78
M  V30 59 1 79 80
M  V30 60 1 80 81
M  V30 61 1 82 83
M  V30 62 1 83 84
M  V30 63 1 85 86
M  V30 64 1 86 87
M  V30 65 1 88 89
M  V30 66 1 89 90
M  V30 67 1 91 92
M  V30 68 1 92 93
M  V30 69 1 94 95
M  V30 70 1 95 96
M  V30 71 1 97 98
M  V30 72 1 98 99
M  V30 73 1 2 91
M  V30 74 1 3 67
M  V30 75 1 4 73
M  V30 76 1 5 55
M  V30 77 1 7 79
M  V30 78 1 8 75
M  V30 79 1 9 69
M  V30 80 1 10 64
M  V30 81 1 12 82
M  V30 82 1 13 97
M  V30 83 1 14 46
M  V30 84 1 15 58
M  V30 85 1 17 61
M  V30 86 1 18 94
M  V30 87 1 19 70
M  V30 88 1 20 48
M  V30 89 1 22 88
M  V30 90 1 23 76
M  V30 91 1 24 60
M  V30 92 1 25 93
M  V30 93 1 27 81
M  V30 94 1 28 85
M  V30 95 1 29 66
M  V30 96 1 30 78
M  V30 97 1 32 90
M  V30 98 1 33 52
M  V30 99 1 34 84
M  V30 100 1 35 96
M  V30 101 1 37 49
M  V30 102 1 38 99
M  V30 103 1 39 57
M  V30 104 1 40 87
M  V30 105 1 42 72
M  V30 106 1 43 63
M  V30 107 1 44 54
M  V30 108 1 45 51
M  V30 END BOND
M  V30 END CTAB
M  END

$$$$
