
     RDKit          3D

  0  0  0  0  0  0  0  0  0  0999 V3000
M  V30 BEGIN CTAB
M  V30 COUNTS 99 108 0 0 0
M  V30 BEGIN ATOM
M  V30 1 Pd 2.3049 -3.2148 2.1592 0
M  V30 2 Pb 2.3855 -2.9549 3.1257 0
M  V30 3 Pb 1.3731 -3.5400 2.3212 0
M  V30 4 Pb 3.2476 -2.9385 1.9787 0
M  V30 5 Pb 2.2334 -3.5004 1.2028 0
M  V30 6 Pd -8.0413 -1.2172 -3.9654 0
M  V30 7 Pb -7.6956 -0.2841 -3.8667 0
M  V30 8 Pb -8.2970 -2.1756 -4.0309 0
M  V30 9 Pb -7.6060 -1.3330 -4.8547 0
M  V30 10 Pb -8.2488 -1.2691 -2.9884 0
M  V30 11 Pd -0.9550 4.5236 3.5929 0
M  V30 12 Pb -0.3288 5.1303 4.0675 0
M  V30 13 Pb -1.5975 3.9366 3.1027 0
M  V30 14 Pb -0.9882 5.1678 2.8333 0
M  V30 15 Pb -0.7901 3.8061 4.2977 0
M  V30 16 Pd 3.4760 4.5001 -1.8643 0
M  V30 17 Pb 2.7053 5.0935 -1.6389 0
M  V30 18 Pb 4.1033 5.2747 -1.8871 0
M  V30 19 Pb 2.9030 3.6988 -1.6787 0
M  V30 20 Pb 4.2681 3.8991 -2.0489 0
M  V30 21 Pd -1.8551 2.4078 -1.6521 0
M  V30 22 Pb -2.7830 2.5561 -1.9964 0
M  V30 23 Pb -2.1921 2.5352 -0.7165 0
M  V30 24 Pb -0.9233 2.2184 -1.3411 0
M  V30 25 Pb -1.5559 2.1374 -2.5643 0
M  V30 26 Pd 7.8745 2.0421 0.7465 0
M  V30 27 Pb 8.1189 3.0085 0.7029 0
M  V30 28 Pb 8.0911 1.9498 1.7166 0
M  V30 29 Pb 7.6009 1.0832 0.7809 0
M  V30 30 Pb 7.5151 2.1285 -0.1922 0
M  V30 31 Pd 3.1970 1.0991 6.0021 0
M  V30 32 Pb 3.0121 0.1230 5.8543 0
M  V30 33 Pb 4.1856 0.9577 5.9443 0
M  V30 34 Pb 2.2010 1.3200 5.9915 0
M  V30 35 Pb 3.3939 2.0525 6.1953 0
M  V30 36 Pd -1.5780 -4.1819 -4.5673 0
M  V30 37 Pb -1.2979 -3.2624 -4.8408 0
M  V30 38 Pb -1.8577 -5.0889 -4.2372 0
M  V30 39 Pb -2.4030 -4.0295 -5.1177 0
M  V30 40 Pb -0.7454 -4.2800 -4.0220 0
M  V30 41 Pd -4.5859 -5.8640 -0.5275 0
M  V30 42 Pb -5.2885 -6.0658 -1.2024 0
M  V30 43 Pb -3.9059 -5.6457 0.1741 0
M  V30 44 Pb -3.9355 -6.3907 -1.0771 0
M  V30 45 Pb -5.2469 -5.2383 -0.1046 0
M  V30 46 Ag -7.3880 0.3916 -3.7608 0
M  V30 47 Fe -5.4645 1.5767 -3.0273 0
M  V30 48 Ag -3.4787 2.6357 -2.2670 0
M  V30 49 Ag -1.3367 1.8208 -3.2048 0
M  V30 50 Fe -1.1725 -0.3093 -4.2369 0
M  V30 51 Ag -1.1291 -2.5523 -5.0102 0
M  V30 52 Ag 4.6865 5.7159 -1.7548 0
M  V30 53 Fe 6.6754 5.1622 -0.6077 0
M  V30 54 Ag 8.1636 3.7351 0.5455 0
M  V30 55 Ag -8.2557 -1.4536 -2.2602 0
M  V30 56 Fe -7.1167 -3.0273 -0.8872 0
M  V30 57 Ag -5.7657 -4.7258 0.0875 0
M  V30 58 Ag -8.3638 -2.9153 -4.0209 0
M  V30 59 Fe -7.2592 -4.7246 -2.9726 0
M  V30 60 Ag -5.8465 -6.1232 -1.6912 0
M  V30 61 Ag 0.2094 5.4636 4.4479 0
M  V30 62 Fe 2.0693 4.5531 5.5622 0
M  V30 63 Ag 3.4406 2.7845 6.2857 0
M  V30 64 Ag -0.9052 5.5821 2.2183 0
M  V30 65 Fe 0.5147 5.6967 0.3231 0
M  V30 66 Ag 2.1183 5.4980 -1.4122 0
M  V30 67 Ag -7.1738 -1.5777 -5.4146 0
M  V30 68 Fe -5.0872 -2.6950 -5.6328 0
M  V30 69 Ag -2.9861 -3.8036 -5.5391 0
M  V30 70 Ag 3.9550 -2.7660 1.8030 0
M  V30 71 Fe 5.6682 -1.1949 1.3251 0
M  V30 72 Ag 7.3877 0.3694 0.8473 0
M  V30 73 Ag 2.1998 -3.7273 0.4880 0
M  V30 74 Fe 1.0264 -4.0304 -1.5550 0
M  V30 75 Ag -0.1218 -4.3457 -3.6105 0
M  V30 76 Ag 0.6831 -3.8123 2.4328 0
M  V30 77 Fe -1.3668 -4.6337 1.5565 0
M  V30 78 Ag -3.4336 -5.4631 0.7291 0
M  V30 79 Ag 8.1189 1.7967 2.4490 0
M  V30 80 Fe 6.6532 1.3478 4.2626 0
M  V30 81 Ag 4.9300 0.9521 5.8481 0
M  V30 82 Ba 2.4338 -2.8067 3.8632 0
M  V30 83 Ga 2.6621 -1.6685 4.7812 0
M  V30 84 Ba 2.8778 -0.6172 5.8003 0
M  V30 85 Ba 2.5220 3.0922 -1.4473 0
M  V30 86 Ga 1.1341 2.6004 -1.3269 0
M  V30 87 Ba -0.2185 2.0277 -1.1673 0
M  V30 88 Ba -0.6634 3.2512 4.8154 0
M  V30 89 Ga 0.4424 2.4026 5.3677 0
M  V30 90 Ba 1.4509 1.4935 6.0035 0
M  V30 91 Ba 4.8712 3.4627 -2.2072 0
M  V30 92 Ga 6.0314 2.8420 -1.5119 0
M  V30 93 Ba 7.2149 2.1913 -0.8867 0
M  V30 94 Ba -2.0014 -5.7666 -3.9360 0
M  V30 95 Ga -2.7438 -6.2671 -2.7566 0
M  V30 96 Ba -3.4953 -6.7449 -1.5736 0
M  V30 97 Ba -2.0969 3.5257 2.7250 0
M  V30 98 Ga -2.2573 3.0572 1.3342 0
M  V30 99 Ba -2.5009 2.5484 -0.0300 0
M  V30 END ATOM
M  V30 BEGIN BOND
M  V30 1 1 1 2
M  V30 2 1 1 3
M  V30 3 1 1 4
M  V30 4 1 1 5
M  V30 5 1 6 7
M  V30 6 1 6 8
M  V30 7 1 6 9
M  V30 8 1 6 10
M  V30 9 1 11 12
M  V30 10 1 11 13
M  V30 11 1 11 14
M  V30 12 1 11 15
M  V30 13 1 16 17
M  V30 14 1 16 18
M  V30 15 1 16 19
M  V30 16 1 16 20
M  V30 17 1 21 22
M  V30 18 1 21 23
M  V30 19 1 21 24
M  V30 20 1 21 25
M  V30 21 1 26 27
M  V30 22 1 26 28
M  V30 23 1 26 29
M  V30 24 1 26 30
M  V30 25 1 31 32
M  V30 26 1 31 33
M  V30 27 1 31 34
M  V30 28 1 31 35
M  V30 29 1 36 37
M  V30 30 1 36 38
M  V30 31 1 36 39
M  V30 32 1 36 40
M  V30 33 1 41 42
M  V30 34 1 41 43
M  V30 35 1 41 44
M  V30 36 1 41 45
M  V30 37 1 46 47
M  V30 38 1 47 48
M  V30 39 1 49 50
M  V30 40 1 50 51
M  V30 41 1 52 53
M  V30 42 1 53 54
M  V30 43 1 55 56
M  V30 44 1 56 57
M  V30 45 1 58 59
M  V30 46 1 59 60
M  V30 47 1 61 62
M  V30 48 1 62 63
M  V30 49 1 64 65
M  V30 50 1 65 66
M  V30 51 1 67 68
M  V30 52 1 68 69
M  V30 53 1 70 71
M  V30 54 1 71 72
M  V30 55 1 73 74
M  V30 56 1 74 75
M  V30 57 1 76 77
M  V30 58 1 77 78
M  V30 59 1 79 80
M  V30 60 1 80 81
M  V30 61 1 82 83
M  V30 62 1 83 84
M  V30 63 1 85 86
M  V30 64 1 86 87
M  V30 65 1 88 89
M  V30 66 1 89 90
M  V30 67 1 91 92
M  V30 68 1 92 93
M  V30 69 1 94 95
M  V30 70 1 95 96
M  V30 71 1 97 98
M  V30 72 1 98 99
M  V30 73 1 2 82
M  V30 74 1 3 76
M  V30 75 1 4 70
M  V30 76 1 5 73
M  V30 77 1 7 46
M  V30 78 1 8 58
M  V30 79 1 9 67
M  V30 80 1 10 55
M  V30 81 1 12 61
M  V30 82 1 13 97
M  V30 83 1 14 64
M  V30 84 1 15 88
M  V30 85 1 17 66
M  V30 86 1 18 52
M  V30 87 1 19 85
M  V30 88 1 20 91
M  V30 89 1 22 48
M  V30 90 1 23 99
M  V30 91 1 24 87
M  V30 92 1 25 49
M  V30 93 1 27 54
M  V30 94 1 28 79
M  V30 95 1 29 72
M  V30 96 1 30 93
M  V30 97 1 32 84
M  V30 98 1 33 81
M  V30 99 1 34 90
M  V30 100 1 35 63
M  V30 101 1 37 51
M  V30 102 1 38 94
M  V30 103 1 39 69
M  V30 104 1 40 75
M  V30 105 1 42 60
M  V30 106 1 43 78
M  V30 107 1 44 96
M  V30 108 1 45 57
M  V30 END BOND
M  V30 END CTAB
M  END

$$$$
