
     RDKit          3D

  0  0  0  0  0  0  0  0  0  0999 V3000
M  V30 BEGIN CTAB
M  V30 COUNTS 99 108 0 0 0
M  V30 BEGIN ATOM
M  V30 1 Pd 1.7398 -4.4952 1.1449 0
M  V30 2 Pb 2.6940 -4.6151 0.8639 0
M  V30 3 Pb 0.7990 -4.3498 1.4521 0
M  V30 4 Pb 2.0452 -4.3716 2.0869 0
M  V30 5 Pb 1.4266 -4.6088 0.2015 0
M  V30 6 Pd -8.6721 0.1389 -0.6379 0
M  V30 7 Pb -8.1787 1.0047 -0.7345 0
M  V30 8 Pb -8.4507 0.0784 0.3349 0
M  V30 9 Pb -8.7490 0.0478 -1.6251 0
M  V30 10 Pb -9.1154 -0.7509 -0.5699 0
M  V30 11 Pd 5.2860 3.0982 -2.0561 0
M  V30 12 Pb 6.0019 2.8899 -1.3963 0
M  V30 13 Pb 4.5594 3.3084 -2.7070 0
M  V30 14 Pb 5.2698 4.0381 -1.7179 0
M  V30 15 Pb 5.2887 2.1424 -2.3570 0
M  V30 16 Pd 2.8566 5.5229 2.1772 0
M  V30 17 Pb 3.5001 5.7683 1.4503 0
M  V30 18 Pb 2.2099 5.3204 2.9019 0
M  V30 19 Pb 2.1058 5.9161 1.6440 0
M  V30 20 Pb 3.5947 5.0621 2.7139 0
M  V30 21 Pd -2.2722 3.8534 -3.1241 0
M  V30 22 Pb -3.1862 3.8214 -2.7133 0
M  V30 23 Pb -1.3614 3.8960 -3.5299 0
M  V30 24 Pb -2.0067 4.5893 -2.4999 0
M  V30 25 Pb -2.4751 3.0896 -3.7378 0
M  V30 26 Pd 4.7061 0.7199 5.2542 0
M  V30 27 Pb 3.8717 1.0802 5.6521 0
M  V30 28 Pb 5.5389 0.3054 4.8830 0
M  V30 29 Pb 4.4136 -0.2038 5.4855 0
M  V30 30 Pb 4.9394 1.6546 4.9170 0
M  V30 31 Pd 6.4084 -1.3804 0.5212 0
M  V30 32 Pb 6.0686 -2.3248 0.4929 0
M  V30 33 Pb 6.7253 -1.4618 1.4654 0
M  V30 34 Pb 6.1035 -1.2374 -0.4217 0
M  V30 35 Pb 6.7917 -0.4600 0.5322 0
M  V30 36 Pd -3.9089 -3.5858 -4.0736 0
M  V30 37 Pb -3.5699 -2.7740 -4.5470 0
M  V30 38 Pb -4.2720 -4.3505 -3.5360 0
M  V30 39 Pb -4.8239 -3.2470 -4.2848 0
M  V30 40 Pb -2.9792 -3.8931 -3.8671 0
M  V30 41 Pd -6.2012 -3.8304 0.7760 0
M  V30 42 Pb -6.4855 -3.0852 1.3881 0
M  V30 43 Pb -5.2831 -3.8154 1.1726 0
M  V30 44 Pb -5.9259 -4.5325 0.1145 0
M  V30 45 Pb -7.1346 -3.8589 0.4253 0
M  V30 46 Ag -7.7906 1.6411 -0.8287 0
M  V30 47 Fe -5.8256 2.7252 -1.6125 0
M  V30 48 Ag -3.8667 3.8237 -2.3919 0
M  V30 49 Ag -2.5506 2.5051 -4.2031 0
M  V30 50 Fe -2.9620 0.1940 -4.5660 0
M  V30 51 Ag -3.3849 -2.1235 -4.8700 0
M  V30 52 Ag 1.5209 6.1695 1.2464 0
M  V30 53 Fe -0.1400 5.7029 -0.3879 0
M  V30 54 Ag -1.7523 5.1198 -2.0333 0
M  V30 55 Ag 1.8101 5.0814 3.4750 0
M  V30 56 Fe 2.1289 3.2945 4.9710 0
M  V30 57 Ag 3.2511 1.4255 5.8547 0
M  V30 58 Ag -8.6945 -0.1740 -2.3332 0
M  V30 59 Fe -7.1920 -1.5258 -3.5705 0
M  V30 60 Ag -5.4750 -2.9111 -4.4374 0
M  V30 61 Ag 2.2733 -4.2435 2.7875 0
M  V30 62 Fe 3.2200 -2.6649 4.2819 0
M  V30 63 Ag 4.1751 -0.9071 5.5541 0
M  V30 64 Ag 1.1829 -4.6876 -0.5040 0
M  V30 65 Fe -0.5433 -4.4103 -2.1125 0
M  V30 66 Ag -2.2837 -4.1233 -3.7039 0
M  V30 67 Ag 0.1118 -4.2221 1.7250 0
M  V30 68 Fe -2.2489 -4.0293 1.5460 0
M  V30 69 Ag -4.6132 -3.8040 1.5103 0
M  V30 70 Ag 4.0024 3.4631 -3.1812 0
M  V30 71 Fe 1.6690 3.7026 -3.5371 0
M  V30 72 Ag -0.6752 3.9260 -3.8262 0
M  V30 73 Ba 3.4175 -4.7087 0.6815 0
M  V30 74 Ga 4.6146 -3.8479 0.5646 0
M  V30 75 Ba 5.8483 -3.0433 0.4310 0
M  V30 76 Ba 5.2863 1.4184 -2.5607 0
M  V30 77 Ga 5.5818 0.1529 -1.8578 0
M  V30 78 Ba 5.8844 -1.0944 -1.1260 0
M  V30 79 Ba -9.3830 -1.4468 -0.5401 0
M  V30 80 Ga -8.6769 -2.6853 -0.1835 0
M  V30 81 Ba -7.8460 -3.8361 0.1974 0
M  V30 82 Ba -8.2243 -0.0806 1.0326 0
M  V30 83 Ga -7.4719 -1.2727 1.4830 0
M  V30 84 Ba -6.7212 -2.5054 1.8113 0
M  V30 85 Ba 6.5244 2.7204 -0.8922 0
M  V30 86 Ga 6.8289 1.4811 -0.1635 0
M  V30 87 Ba 7.0985 0.2212 0.5436 0
M  V30 88 Ba 4.1704 4.7424 3.1164 0
M  V30 89 Ga 4.5714 3.5119 3.8755 0
M  V30 90 Ba 5.1213 2.3589 4.6628 0
M  V30 91 Ba 5.2623 4.7319 -1.4354 0
M  V30 92 Ga 4.6120 5.3543 -0.2664 0
M  V30 93 Ba 3.9655 5.9836 0.9010 0
M  V30 94 Ba -4.5285 -4.9104 -3.1029 0
M  V30 95 Ga -5.1323 -4.9823 -1.7544 0
M  V30 96 Ba -5.7355 -5.0436 -0.4049 0
M  V30 97 Ba 6.1357 -0.0890 4.6503 0
M  V30 98 Ga 6.5612 -0.7602 3.4055 0
M  V30 99 Ba 6.9953 -1.4327 2.1645 0
M  V30 END ATOM
M  V30 BEGIN BOND
M  V30 1 1 1 2
M  V30 2 1 1 3
M  V30 3 1 1 4
M  V30 4 1 1 5
M  V30 5 1 6 7
M  V30 6 1 6 8
M  V30 7 1 6 9
M  V30 8 1 6 10
M  V30 9 1 11 12
M  V30 10 1 11 13
M  V30 11 1 11 14
M  V30 12 1 11 15
M  V30 13 1 16 17
M  V30 14 1 16 18
M  V30 15 1 16 19
M  V30 16 1 16 20
M  V30 17 1 21 22
M  V30 18 1 21 23
M  V30 19 1 21 24
M  V30 20 1 21 25
M  V30 21 1 26 27
M  V30 22 1 26 28
M  V30 23 1 26 29
M  V30 24 1 26 30
M  V30 25 1 31 32
M  V30 26 1 31 33
M  V30 27 1 31 34
M  V30 28 1 31 35
M  V30 29 1 36 37
M  V30 30 1 36 38
M  V30 31 1 36 39
M  V30 32 1 36 40
M  V30 33 1 41 42
M  V30 34 1 41 43
M  V30 35 1 41 44
M  V30 36 1 41 45
M  V30 37 1 46 47
M  V30 38 1 47 48
M  V30 39 1 49 50
M  V30 40 1 50 51
M  V30 41 1 52 53
M  V30 42 1 53 54
M  V30 43 1 55 56
M  V30 44 1 56 57
M  V30 45 1 58 59
M  V30 46 1 59 60
M  V30 47 1 61 62
M  V30 48 1 62 63
M  V30 49 1 64 65
M  V30 50 1 65 66
M  V30 51 1 67 68
M  V30 52 1 68 69
M  V30 53 1 70 71
M  V30 54 1 71 72
M  V30 55 1 73 74
M  V30 56 1 74 75
M  V30 57 1 76 77
M  V30 58 1 77 78
M  V30 59 1 79 80
M  V30 60 1 80 81
M  V30 61 1 82 83
M  V30 62 1 83 84
M  V30 63 1 85 86
M  V30 64 1 86 87
M  V30 65 1 88 89
M  V30 66 1 89 90
M  V30 67 1 91 92
M  V30 68 1 92 93
M  V30 69 1 94 95
M  V30 70 1 95 96
M  V30 71 1 97 98
M  V30 72 1 98 99
M  V30 73 1 2 73
M  V30 74 1 3 67
M  V30 75 1 4 61
M  V30 76 1 5 64
M  V30 77 1 7 46
M  V30 78 1 8 82
M  V30 79 1 9 58
M  V30 80 1 10 79
M  V30 81 1 12 85
M  V30 82 1 13 70
M  V30 83 1 14 91
M  V30 84 1 15 76
M  V30 85 1 17 93
M  V30 86 1 18 55
M  V30 87 1 19 52
M  V30 88 1 20 88
M  V30 89 1 22 48
M  V30 90 1 23 72
M  V30 91 1 24 54
M  V30 92 1 25 49
M  V30 93 1 27 57
M  V30 94 1 28 97
M  V30 95 1 29 63
M  V30 96 1 30 90
M  V30 97 1 32 75
M  V30 98 1 33 99
M  V30 99 1 34 78
M  V30 100 1 35 87
M  V30 101 1 37 51
M  V30 102 1 38 94
M  V30 103 1 39 60
M  V30 104 1 40 66
M  V30 105 1 42 84
M  V30 106 1 43 69
M  V30 107 1 44 96
M  V30 108 1 45 81
M  V30 END BOND
M  V30 END CTAB
M  END

$$$$
