
     RDKit          3D

  0  0  0  0  0  0  0  0  0  0999 V3000
M  V30 BEGIN CTAB
M  V30 COUNTS 99 108 0 0 0
M  V30 BEGIN ATOM
M  V30 1 Pd 2.4976 0.8867 6.6182 0
M  V30 2 Pb 2.3695 -0.1038 6.6540 0
M  V30 3 Pb 1.4903 0.9942 6.5169 0
M  V30 4 Pb 2.6077 1.8729 6.5798 0
M  V30 5 Pb 3.4915 0.7870 6.6913 0
M  V30 6 Pd -3.1073 5.3026 -3.4102 0
M  V30 7 Pb -3.0299 4.8833 -4.3138 0
M  V30 8 Pb -4.0232 4.9260 -3.2874 0
M  V30 9 Pb -3.1827 5.6551 -2.4796 0
M  V30 10 Pb -2.1605 5.6129 -3.4917 0
M  V30 11 Pd -1.7348 -4.5784 -1.8139 0
M  V30 12 Pb -0.7473 -4.7345 -1.7418 0
M  V30 13 Pb -2.7358 -4.5073 -1.8267 0
M  V30 14 Pb -1.8164 -4.6456 -0.8213 0
M  V30 15 Pb -1.6335 -4.5546 -2.8156 0
M  V30 16 Pd 1.7012 -5.1675 2.3213 0
M  V30 17 Pb 1.7849 -5.2878 1.3301 0
M  V30 18 Pb 1.6321 -4.9547 3.2937 0
M  V30 19 Pb 0.7077 -5.1401 2.2342 0
M  V30 20 Pb 2.6923 -5.1535 2.4426 0
M  V30 21 Pd 4.0602 2.7419 -3.0424 0
M  V30 22 Pb 4.3661 3.1450 -2.1745 0
M  V30 23 Pb 3.7525 2.2656 -3.8679 0
M  V30 24 Pb 4.6556 1.9717 -2.8364 0
M  V30 25 Pb 3.4585 3.5207 -3.2255 0
M  V30 26 Pd -1.4682 -1.3071 -6.5387 0
M  V30 27 Pb -0.4993 -1.0572 -6.5561 0
M  V30 28 Pb -2.4422 -1.5086 -6.5017 0
M  V30 29 Pb -1.6883 -0.3656 -6.7912 0
M  V30 30 Pb -1.2862 -2.2465 -6.2357 0
M  V30 31 Pd -2.3665 3.2826 3.9292 0
M  V30 32 Pb -3.0308 2.5765 3.6662 0
M  V30 33 Pb -1.9590 2.6515 4.6148 0
M  V30 34 Pb -1.7135 3.9811 4.1974 0
M  V30 35 Pb -2.7234 3.9272 3.2539 0
M  V30 36 Pd 6.6696 -0.0072 3.1448 0
M  V30 37 Pb 6.7239 -0.9870 3.3224 0
M  V30 38 Pb 6.5567 0.1876 4.1213 0
M  V30 39 Pb 6.7657 -0.2113 2.1751 0
M  V30 40 Pb 6.5158 0.9471 2.8772 0
M  V30 41 Pd -6.2508 -1.1019 -1.2492 0
M  V30 42 Pb -5.9903 -2.0645 -1.1595 0
M  V30 43 Pb -6.4878 -0.1470 -1.4190 0
M  V30 44 Pb -6.0709 -0.8942 -0.2848 0
M  V30 45 Pb -6.3725 -1.2889 -2.2186 0
M  V30 46 Ag 2.5593 2.6048 6.4867 0
M  V30 47 Fe 0.8826 3.9426 5.5146 0
M  V30 48 Ag -1.1599 4.4088 4.4384 0
M  V30 49 Ag -2.9455 4.5273 -4.9675 0
M  V30 50 Fe -2.4171 2.4703 -6.0283 0
M  V30 51 Ag -1.8703 0.3465 -6.9371 0
M  V30 52 Ag 4.6192 3.3652 -1.4981 0
M  V30 53 Fe 5.4970 2.6103 0.5822 0
M  V30 54 Ag 6.3525 1.6151 2.5685 0
M  V30 55 Ag 3.5393 1.8466 -4.4544 0
M  V30 56 Fe 1.8884 0.5200 -5.5330 0
M  V30 57 Ag 0.2044 -0.7956 -6.5731 0
M  V30 58 Ag 5.0998 1.4192 -2.6087 0
M  V30 59 Fe 6.0256 0.4377 -0.6624 0
M  V30 60 Ag 6.7992 -0.3301 1.4402 0
M  V30 61 Ag -3.1729 -1.6239 -6.4141 0
M  V30 62 Fe -4.9045 -1.5781 -4.8001 0
M  V30 63 Ag -6.3725 -1.4366 -2.9481 0
M  V30 64 Ag -4.6804 4.6073 -3.1260 0
M  V30 65 Fe -5.7432 2.6246 -2.3712 0
M  V30 66 Ag -6.6351 0.5616 -1.6101 0
M  V30 67 Ag 2.2380 -0.8416 6.6604 0
M  V30 68 Fe 1.9200 -2.8321 5.4076 0
M  V30 69 Ag 1.6301 -4.7248 4.0053 0
M  V30 70 Ag 3.4194 -5.0814 2.6058 0
M  V30 71 Fe 5.1544 -3.5157 3.0141 0
M  V30 72 Ag 6.6802 -1.7321 3.3584 0
M  V30 73 Ag -3.2834 5.8515 -1.7647 0
M  V30 74 Fe -3.1206 5.1845 0.5077 0
M  V30 75 Ag -2.9310 4.4483 2.7565 0
M  V30 76 Ag -1.4342 5.7876 -3.5564 0
M  V30 77 Fe 0.8014 4.9902 -3.4614 0
M  V30 78 Ag 3.0032 4.1059 -3.3458 0
M  V30 79 Ag -3.5258 2.0328 3.4971 0
M  V30 80 Fe -4.7178 0.6693 1.9540 0
M  V30 81 Ag -5.9202 -0.7043 0.4281 0
M  V30 82 Ba 4.2398 0.7356 6.7411 0
M  V30 83 Ga 5.3508 0.5218 5.7909 0
M  V30 84 Ba 6.4778 0.3096 4.8592 0
M  V30 85 Ba 0.7246 1.0252 6.4770 0
M  V30 86 Ga -0.4251 1.6523 5.7558 0
M  V30 87 Ba -1.6884 2.1753 5.1510 0
M  V30 88 Ba -3.4833 -4.5286 -1.7263 0
M  V30 89 Ga -4.6239 -3.6237 -1.4642 0
M  V30 90 Ba -5.8215 -2.7962 -1.1993 0
M  V30 91 Ba -1.8929 -4.7186 -0.0805 0
M  V30 92 Ga -0.9675 -4.9076 1.0488 0
M  V30 93 Ba -0.0363 -5.0963 2.1732 0
M  V30 94 Ba -1.4870 -4.5957 -3.5574 0
M  V30 95 Ga -1.3586 -3.7366 -4.7584 0
M  V30 96 Ba -1.2078 -2.9628 -6.0138 0
M  V30 97 Ba -0.0155 -4.8972 -1.6772 0
M  V30 98 Ga 0.9142 -5.1134 -0.5483 0
M  V30 99 Ba 1.8430 -5.3291 0.5814 0
M  V30 END ATOM
M  V30 BEGIN BOND
M  V30 1 1 1 2
M  V30 2 1 1 3
M  V30 3 1 1 4
M  V30 4 1 1 5
M  V30 5 1 6 7
M  V30 6 1 6 8
M  V30 7 1 6 9
M  V30 8 1 6 10
M  V30 9 1 11 12
M  V30 10 1 11 13
M  V30 11 1 11 14
M  V30 12 1 11 15
M  V30 13 1 16 17
M  V30 14 1 16 18
M  V30 15 1 16 19
M  V30 16 1 16 20
M  V30 17 1 21 22
M  V30 18 1 21 23
M  V30 19 1 21 24
M  V30 20 1 21 25
M  V30 21 1 26 27
M  V30 22 1 26 28
M  V30 23 1 26 29
M  V30 24 1 26 30
M  V30 25 1 31 32
M  V30 26 1 31 33
M  V30 27 1 31 34
M  V30 28 1 31 35
M  V30 29 1 36 37
M  V30 30 1 36 38
M  V30 31 1 36 39
M  V30 32 1 36 40
M  V30 33 1 41 42
M  V30 34 1 41 43
M  V30 35 1 41 44
M  V30 36 1 41 45
M  V30 37 1 46 47
M  V30 38 1 47 48
M  V30 39 1 49 50
M  V30 40 1 50 51
M  V30 41 1 52 53
M  V30 42 1 53 54
M  V30 43 1 55 56
M  V30 44 1 56 57
M  V30 45 1 58 59
M  V30 46 1 59 60
M  V30 47 1 61 62
M  V30 48 1 62 63
M  V30 49 1 64 65
M  V30 50 1 65 66
M  V30 51 1 67 68
M  V30 52 1 68 69
M  V30 53 1 70 71
M  V30 54 1 71 72
M  V30 55 1 73 74
M  V30 56 1 74 75
M  V30 57 1 76 77
M  V30 58 1 77 78
M  V30 59 1 79 80
M  V30 60 1 80 81
M  V30 61 1 82 83
M  V30 62 1 83 84
M  V30 63 1 85 86
M  V30 64 1 86 87
M  V30 65 1 88 89
M  V30 66 1 89 90
M  V30 67 1 91 92
M  V30 68 1 92 93
M  V30 69 1 94 95
M  V30 70 1 95 96
M  V30 71 1 97 98
M  V30 72 1 98 99
M  V30 73 1 2 67
M  V30 74 1 3 85
M  V30 75 1 4 46
M  V30 76 1 5 82
M  V30 77 1 7 49
M  V30 78 1 8 64
M  V30 79 1 9 73
M  V30 80 1 10 76
M  V30 81 1 12 97
M  V30 82 1 13 88
M  V30 83 1 14 91
M  V30 84 1 15 94
M  V30 85 1 17 99
M  V30 86 1 18 69
M  V30 87 1 19 93
M  V30 88 1 20 70
M  V30 89 1 22 52
M  V30 90 1 23 55
M  V30 91 1 24 58
M  V30 92 1 25 78
M  V30 93 1 27 57
M  V30 94 1 28 61
M  V30 95 1 29 51
M  V30 96 1 30 96
M  V30 97 1 32 79
M  V30 98 1 33 87
M  V30 99 1 34 48
M  V30 100 1 35 75
M  V30 101 1 37 72
M  V30 102 1 38 84
M  V30 103 1 39 60
M  V30 104 1 40 54
M  V30 105 1 42 90
M  V30 106 1 43 66
M  V30 107 1 44 81
M  V30 108 1 45 63
M  V30 END BOND
M  V30 END CTAB
M  END

$$$$
