
     RDKit          3D

  0  0  0  0  0  0  0  0  0  0999 V3000
M  V30 BEGIN CTAB
M  V30 COUNTS 99 108 0 0 0
M  V30 BEGIN ATOM
M  V30 1 Pd -2.5931 0.6275 5.6921 0
M  V30 2 Pb -2.4720 1.4716 5.1675 0
M  V30 3 Pb -2.8134 -0.2222 6.2074 0
M  V30 4 Pb -1.6301 0.3403 5.6092 0
M  V30 5 Pb -3.5442 0.9049 5.7781 0
M  V30 6 Pd 7.2476 -4.7438 -1.4746 0
M  V30 7 Pb 6.4574 -5.3566 -1.4746 0
M  V30 8 Pb 7.7744 -3.9299 -1.7706 0
M  V30 9 Pb 7.6498 -5.2718 -2.2207 0
M  V30 10 Pb 6.8525 -4.2267 -0.7156 0
M  V30 11 Pd 1.0748 -1.6385 2.0852 0
M  V30 12 Pb 1.0793 -1.3972 3.0605 0
M  V30 13 Pb 0.9122 -2.2363 1.2979 0
M  V30 14 Pb 2.0551 -1.8339 2.0786 0
M  V30 15 Pb 1.2681 -0.6998 2.3473 0
M  V30 16 Pd -5.5249 -4.1939 5.2825 0
M  V30 17 Pb -6.2401 -3.5045 5.3284 0
M  V30 18 Pb -4.8283 -4.9030 5.2554 0
M  V30 19 Pb -5.8433 -4.4748 4.3646 0
M  V30 20 Pb -5.0377 -3.7348 6.0403 0
M  V30 21 Pd 2.8392 5.4831 -3.6922 0
M  V30 22 Pb 2.9311 4.5473 -3.3500 0
M  V30 23 Pb 2.8186 5.1762 -4.6449 0
M  V30 24 Pb 2.7518 6.4149 -4.0347 0
M  V30 25 Pb 2.5575 5.8380 -2.7932 0
M  V30 26 Pd -3.3952 -3.6619 0.0637 0
M  V30 27 Pb -3.8778 -2.8669 -0.3273 0
M  V30 28 Pb -2.9290 -4.4510 0.4490 0
M  V30 29 Pb -2.5144 -3.4464 -0.3619 0
M  V30 30 Pb -4.2391 -3.9399 0.5608 0
M  V30 31 Pd -3.9337 1.8054 0.7321 0
M  V30 32 Pb -3.7952 2.3982 1.5295 0
M  V30 33 Pb -3.0875 2.2859 0.9414 0
M  V30 34 Pb -4.4248 1.1472 0.1564 0
M  V30 35 Pb -4.1908 2.5711 0.1434 0
M  V30 36 Pd -1.3874 7.6089 -3.6323 0
M  V30 37 Pb -0.9089 7.5860 -2.7466 0
M  V30 38 Pb -0.6039 8.1093 -3.9904 0
M  V30 39 Pb -2.1683 7.0993 -3.2711 0
M  V30 40 Pb -1.6465 7.4182 -4.5803 0
M  V30 41 Pd 5.3490 -1.6846 -4.9815 0
M  V30 42 Pb 4.5001 -2.2035 -5.0823 0
M  V30 43 Pb 5.7868 -2.2869 -5.6468 0
M  V30 44 Pb 6.2557 -1.4828 -4.5757 0
M  V30 45 Pb 4.9053 -1.0606 -4.3378 0
M  V30 46 Ag 7.8647 -5.5373 -2.8794 0
M  V30 47 Fe 7.3173 -4.5842 -4.9560 0
M  V30 48 Ag 6.1660 -2.8202 -5.9970 0
M  V30 49 Ag -4.2803 0.9760 5.8070 0
M  V30 50 Fe -5.9613 -0.6606 5.6398 0
M  V30 51 Ag -6.6537 -2.8945 5.3921 0
M  V30 52 Ag -4.3574 3.1487 -0.3041 0
M  V30 53 Fe -3.5796 4.9395 -1.6557 0
M  V30 54 Ag -2.7512 6.7165 -2.9954 0
M  V30 55 Ag 6.5581 -3.8497 -0.1381 0
M  V30 56 Fe 4.6764 -2.9101 0.9642 0
M  V30 57 Ag 2.7918 -1.9718 2.0628 0
M  V30 58 Ag -4.2993 -5.3912 5.0853 0
M  V30 59 Fe -3.1192 -5.6449 3.0670 0
M  V30 60 Ag -2.6461 -5.0013 0.8549 0
M  V30 61 Ag 2.5251 5.0939 -5.3276 0
M  V30 62 Fe 0.3975 5.9596 -5.8995 0
M  V30 63 Ag -1.5541 7.1410 -5.2685 0
M  V30 64 Ag 5.7804 -5.5870 -1.7006 0
M  V30 65 Fe 4.4689 -4.4775 -3.3404 0
M  V30 66 Ag 4.0291 -2.7660 -4.9268 0
M  V30 67 Ag 1.2689 0.0367 2.4223 0
M  V30 68 Fe -0.3784 1.6403 1.8924 0
M  V30 69 Ag -2.4308 2.5518 1.1672 0
M  V30 70 Ag 3.0116 3.8440 -3.1003 0
M  V30 71 Fe 3.7820 1.6265 -3.4645 0
M  V30 72 Ag 4.5682 -0.5776 -3.8730 0
M  V30 73 Ba 2.2190 6.1524 -2.1903 0
M  V30 74 Ga 0.8964 6.8359 -2.1060 0
M  V30 75 Ba -0.4405 7.4945 -2.1555 0
M  V30 76 Ba 0.7420 -2.5711 0.6452 0
M  V30 77 Ga -0.5254 -2.9873 0.0041 0
M  V30 78 Ba -1.8066 -3.3964 -0.6139 0
M  V30 79 Ba -6.0371 -4.6158 3.6401 0
M  V30 80 Ga -5.4185 -4.3925 2.2969 0
M  V30 81 Ba -4.8656 -4.1997 0.9209 0
M  V30 82 Ba -4.2915 -2.3016 -0.6191 0
M  V30 83 Ga -4.4973 -0.8439 -0.4346 0
M  V30 84 Ba -4.7294 0.6135 -0.2800 0
M  V30 85 Ba -3.0092 -0.8330 6.6296 0
M  V30 86 Ga -3.8229 -2.0850 6.5521 0
M  V30 87 Ba -4.6152 -3.3532 6.5483 0
M  V30 88 Ba -2.5143 2.1204 4.7887 0
M  V30 89 Ga -3.0382 2.4875 3.4552 0
M  V30 90 Ba -3.5687 2.8168 2.1143 0
M  V30 91 Ba 8.0519 -3.2882 -2.0890 0
M  V30 92 Ga 7.5070 -2.3577 -3.1354 0
M  V30 93 Ba 6.9169 -1.4593 -4.1853 0
M  V30 94 Ba -0.9113 0.0991 5.5975 0
M  V30 95 Ga 0.0526 -0.5372 4.6662 0
M  V30 96 Ba 1.0599 -1.1724 3.7812 0
M  V30 97 Ba 2.6313 7.1096 -4.2787 0
M  V30 98 Ga 1.3651 7.8514 -4.3018 0
M  V30 99 Ba 0.0183 8.4316 -4.2454 0
M  V30 END ATOM
M  V30 BEGIN BOND
M  V30 1 1 1 2
M  V30 2 1 1 3
M  V30 3 1 1 4
M  V30 4 1 1 5
M  V30 5 1 6 7
M  V30 6 1 6 8
M  V30 7 1 6 9
M  V30 8 1 6 10
M  V30 9 1 11 12
M  V30 10 1 11 13
M  V30 11 1 11 14
M  V30 12 1 11 15
M  V30 13 1 16 17
M  V30 14 1 16 18
M  V30 15 1 16 19
M  V30 16 1 16 20
M  V30 17 1 21 22
M  V30 18 1 21 23
M  V30 19 1 21 24
M  V30 20 1 21 25
M  V30 21 1 26 27
M  V30 22 1 26 28
M  V30 23 1 26 29
M  V30 24 1 26 30
M  V30 25 1 31 32
M  V30 26 1 31 33
M  V30 27 1 31 34
M  V30 28 1 31 35
M  V30 29 1 36 37
M  V30 30 1 36 38
M  V30 31 1 36 39
M  V30 32 1 36 40
M  V30 33 1 41 42
M  V30 34 1 41 43
M  V30 35 1 41 44
M  V30 36 1 41 45
M  V30 37 1 46 47
M  V30 38 1 47 48
M  V30 39 1 49 50
M  V30 40 1 50 51
M  V30 41 1 52 53
M  V30 42 1 53 54
M  V30 43 1 55 56
M  V30 44 1 56 57
M  V30 45 1 58 59
M  V30 46 1 59 60
M  V30 47 1 61 62
M  V30 48 1 62 63
M  V30 49 1 64 65
M  V30 50 1 65 66
M  V30 51 1 67 68
M  V30 52 1 68 69
M  V30 53 1 70 71
M  V30 54 1 71 72
M  V30 55 1 73 74
M  V30 56 1 74 75
M  V30 57 1 76 77
M  V30 58 1 77 78
M  V30 59 1 79 80
M  V30 60 1 80 81
M  V30 61 1 82 83
M  V30 62 1 83 84
M  V30 63 1 85 86
M  V30 64 1 86 87
M  V30 65 1 88 89
M  V30 66 1 89 90
M  V30 67 1 91 92
M  V30 68 1 92 93
M  V30 69 1 94 95
M  V30 70 1 95 96
M  V30 71 1 97 98
M  V30 72 1 98 99
M  V30 73 1 2 88
M  V30 74 1 3 85
M  V30 75 1 4 94
M  V30 76 1 5 49
M  V30 77 1 7 64
M  V30 78 1 8 91
M  V30 79 1 9 46
M  V30 80 1 10 55
M  V30 81 1 12 96
M  V30 82 1 13 76
M  V30 83 1 14 57
M  V30 84 1 15 67
M  V30 85 1 17 51
M  V30 86 1 18 58
M  V30 87 1 19 79
M  V30 88 1 20 87
M  V30 89 1 22 70
M  V30 90 1 23 61
M  V30 91 1 24 97
M  V30 92 1 25 73
M  V30 93 1 27 82
M  V30 94 1 28 60
M  V30 95 1 29 78
M  V30 96 1 30 81
M  V30 97 1 32 90
M  V30 98 1 33 69
M  V30 99 1 34 84
M  V30 100 1 35 52
M  V30 101 1 37 75
M  V30 102 1 38 99
M  V30 103 1 39 54
M  V30 104 1 40 63
M  V30 105 1 42 66
M  V30 106 1 43 48
M  V30 107 1 44 93
M  V30 108 1 45 72
M  V30 END BOND
M  V30 END CTAB
M  END

$$$$
