
     RDKit          3D

  0  0  0  0  0  0  0  0  0  0999 V3000
M  V30 BEGIN CTAB
M  V30 COUNTS 99 108 0 0 0
M  V30 BEGIN ATOM
M  V30 1 Pd 2.1940 5.9089 -1.9107 0
M  V30 2 Pb 2.3973 5.3953 -1.0781 0
M  V30 3 Pb 1.8757 6.4420 -2.6919 0
M  V30 4 Pb 2.4403 6.7714 -1.4624 0
M  V30 5 Pb 2.0130 5.0660 -2.4234 0
M  V30 6 Pd -0.6311 9.8646 -1.1935 0
M  V30 7 Pb -0.8271 10.2579 -0.3007 0
M  V30 8 Pb 0.3464 9.9789 -1.0399 0
M  V30 9 Pb -0.4180 9.4719 -2.0888 0
M  V30 10 Pb -1.5938 9.5596 -1.2523 0
M  V30 11 Pd -3.1451 -5.6168 0.2093 0
M  V30 12 Pb -2.9966 -5.8481 1.1646 0
M  V30 13 Pb -3.1996 -5.2561 -0.7198 0
M  V30 14 Pb -2.7500 -6.4882 -0.0882 0
M  V30 15 Pb -3.5564 -4.7711 0.5363 0
M  V30 16 Pd 1.6870 -8.6174 0.4396 0
M  V30 17 Pb 2.6505 -8.5745 0.6856 0
M  V30 18 Pb 1.4937 -8.5127 1.4149 0
M  V30 19 Pb 1.9553 -8.6080 -0.5260 0
M  V30 20 Pb 0.7208 -8.6677 0.1754 0
M  V30 21 Pd -1.3199 1.1633 2.6088 0
M  V30 22 Pb -0.8333 0.4470 2.1055 0
M  V30 23 Pb -1.8449 1.8696 3.0843 0
M  V30 24 Pb -2.1410 0.6041 2.5570 0
M  V30 25 Pb -0.4907 1.7213 2.5917 0
M  V30 26 Pd -3.8901 5.9641 1.3929 0
M  V30 27 Pb -3.8292 6.6894 2.0715 0
M  V30 28 Pb -3.9347 5.2485 0.6944 0
M  V30 29 Pb -3.9065 6.6704 0.6623 0
M  V30 30 Pb -3.8170 5.2942 2.1336 0
M  V30 31 Pd 1.1096 -4.1930 2.8026 0
M  V30 32 Pb 0.8097 -3.3790 2.2977 0
M  V30 33 Pb 2.0507 -3.9086 2.5949 0
M  V30 34 Pb 0.1825 -4.4924 3.0344 0
M  V30 35 Pb 1.3787 -5.0572 3.2290 0
M  V30 36 Pd -0.5055 0.5927 -3.2002 0
M  V30 37 Pb 0.2729 0.0152 -3.4418 0
M  V30 38 Pb -1.0871 -0.2246 -3.1922 0
M  V30 39 Pb 0.0953 1.3889 -3.3112 0
M  V30 40 Pb -1.2851 1.1563 -2.9228 0
M  V30 41 Pd 4.4558 -5.0574 -1.1657 0
M  V30 42 Pb 4.2041 -5.7810 -1.8105 0
M  V30 43 Pb 4.8202 -5.7554 -0.5567 0
M  V30 44 Pb 4.5839 -4.3892 -0.4341 0
M  V30 45 Pb 4.1123 -4.3610 -1.7956 0
M  V30 46 Ag 0.8619 -0.4185 -3.6032 0
M  V30 47 Fe 2.3624 -2.1362 -2.9432 0
M  V30 48 Ag 3.8665 -3.8530 -2.2895 0
M  V30 49 Ag -1.0562 10.4217 0.3847 0
M  V30 50 Fe -2.4055 9.1851 1.8662 0
M  V30 51 Ag -3.6873 7.3021 2.4627 0
M  V30 52 Ag -3.9656 4.7404 0.1422 0
M  V30 53 Fe -2.9099 3.1459 -1.2684 0
M  V30 54 Ag -1.8861 1.5454 -2.6956 0
M  V30 55 Ag -3.8409 -4.1433 0.8205 0
M  V30 56 Fe -3.3884 -1.9756 1.6615 0
M  V30 57 Ag -2.7262 0.1545 2.4584 0
M  V30 58 Ag 2.4663 5.0269 -0.4293 0
M  V30 59 Fe 1.3802 3.5717 1.1006 0
M  V30 60 Ag 0.1430 2.1132 2.5078 0
M  V30 61 Ag -3.2000 -4.8720 -1.3628 0
M  V30 62 Fe -2.3730 -2.8763 -2.3537 0
M  V30 63 Ag -1.4979 -0.8539 -3.2443 0
M  V30 64 Ba -2.4829 -7.1634 -0.2838 0
M  V30 65 Ga -1.2163 -7.9155 -0.1601 0
M  V30 66 Ba 0.0132 -8.7317 -0.0741 0
M  V30 67 Ba -2.3058 9.2869 -1.2664 0
M  V30 68 Ga -3.0886 8.2358 -0.5498 0
M  V30 69 Ba -3.9416 7.2068 0.1165 0
M  V30 70 Ba 1.5675 6.8717 -3.2208 0
M  V30 71 Ga 0.6741 8.0312 -3.0499 0
M  V30 72 Ba -0.2069 9.1725 -2.7440 0
M  V30 73 Ba 2.7363 -3.6413 2.4255 0
M  V30 74 Ga 3.6936 -3.7830 1.3071 0
M  V30 75 Ba 4.6279 -3.9517 0.1732 0
M  V30 76 Ba 2.2127 -8.5307 -1.2288 0
M  V30 77 Ga 3.0828 -7.4774 -1.7944 0
M  V30 78 Ba 3.9526 -6.3597 -2.2192 0
M  V30 79 Ba 2.6371 7.4448 -1.1886 0
M  V30 80 Ga 1.9118 8.7185 -1.0211 0
M  V30 81 Ba 1.0772 9.9281 -0.8957 0
M  V30 82 Ba -2.2849 2.3672 3.4334 0
M  V30 83 Ga -3.0016 3.6023 3.0580 0
M  V30 84 Ba -3.7359 4.8394 2.7264 0
M  V30 85 Ba 1.9370 4.4744 -2.8825 0
M  V30 86 Ga 1.2012 3.2084 -3.0881 0
M  V30 87 Ba 0.5959 1.9219 -3.4936 0
M  V30 88 Ba -2.8395 -5.8948 1.8911 0
M  V30 89 Ga -1.6623 -5.3656 2.6017 0
M  V30 90 Ba -0.4635 -4.8096 3.2538 0
M  V30 91 Ba -0.4982 -0.0816 1.6896 0
M  V30 92 Ga 0.0608 -1.4419 1.8410 0
M  V30 93 Ba 0.6504 -2.7974 1.8455 0
M  V30 94 Ba 3.3724 -8.4958 0.8507 0
M  V30 95 Ga 4.2868 -7.4349 0.4181 0
M  V30 96 Ba 5.0543 -6.3024 -0.1085 0
M  V30 97 Ba 1.4669 -8.3655 2.1506 0
M  V30 98 Ga 1.4652 -7.0789 2.8769 0
M  V30 99 Ba 1.4597 -5.7470 3.5162 0
M  V30 END ATOM
M  V30 BEGIN BOND
M  V30 1 1 1 2
M  V30 2 1 1 3
M  V30 3 1 1 4
M  V30 4 1 1 5
M  V30 5 1 6 7
M  V30 6 1 6 8
M  V30 7 1 6 9
M  V30 8 1 6 10
M  V30 9 1 11 12
M  V30 10 1 11 13
M  V30 11 1 11 14
M  V30 12 1 11 15
M  V30 13 1 16 17
M  V30 14 1 16 18
M  V30 15 1 16 19
M  V30 16 1 16 20
M  V30 17 1 21 22
M  V30 18 1 21 23
M  V30 19 1 21 24
M  V30 20 1 21 25
M  V30 21 1 26 27
M  V30 22 1 26 28
M  V30 23 1 26 29
M  V30 24 1 26 30
M  V30 25 1 31 32
M  V30 26 1 31 33
M  V30 27 1 31 34
M  V30 28 1 31 35
M  V30 29 1 36 37
M  V30 30 1 36 38
M  V30 31 1 36 39
M  V30 32 1 36 40
M  V30 33 1 41 42
M  V30 34 1 41 43
M  V30 35 1 41 44
M  V30 36 1 41 45
M  V30 37 1 46 47
M  V30 38 1 47 48
M  V30 39 1 49 50
M  V30 40 1 50 51
M  V30 41 1 52 53
M  V30 42 1 53 54
M  V30 43 1 55 56
M  V30 44 1 56 57
M  V30 45 1 58 59
M  V30 46 1 59 60
M  V30 47 1 61 62
M  V30 48 1 62 63
M  V30 49 1 64 65
M  V30 50 1 65 66
M  V30 51 1 67 68
M  V30 52 1 68 69
M  V30 53 1 70 71
M  V30 54 1 71 72
M  V30 55 1 73 74
M  V30 56 1 74 75
M  V30 57 1 76 77
M  V30 58 1 77 78
M  V30 59 1 79 80
M  V30 60 1 80 81
M  V30 61 1 82 83
M  V30 62 1 83 84
M  V30 63 1 85 86
M  V30 64 1 86 87
M  V30 65 1 88 89
M  V30 66 1 89 90
M  V30 67 1 91 92
M  V30 68 1 92 93
M  V30 69 1 94 95
M  V30 70 1 95 96
M  V30 71 1 97 98
M  V30 72 1 98 99
M  V30 73 1 2 58
M  V30 74 1 3 70
M  V30 75 1 4 79
M  V30 76 1 5 85
M  V30 77 1 7 49
M  V30 78 1 8 81
M  V30 79 1 9 72
M  V30 80 1 10 67
M  V30 81 1 12 88
M  V30 82 1 13 61
M  V30 83 1 14 64
M  V30 84 1 15 55
M  V30 85 1 17 94
M  V30 86 1 18 97
M  V30 87 1 19 76
M  V30 88 1 20 66
M  V30 89 1 22 91
M  V30 90 1 23 82
M  V30 91 1 24 57
M  V30 92 1 25 60
M  V30 93 1 27 51
M  V30 94 1 28 52
M  V30 95 1 29 69
M  V30 96 1 30 84
M  V30 97 1 32 93
M  V30 98 1 33 73
M  V30 99 1 34 90
M  V30 100 1 35 99
M  V30 101 1 37 46
M  V30 102 1 38 63
M  V30 103 1 39 87
M  V30 104 1 40 54
M  V30 105 1 42 78
M  V30 106 1 43 96
M  V30 107 1 44 75
M  V30 108 1 45 48
M  V30 END BOND
M  V30 END CTAB
M  END

$$$$
