
     RDKit          3D

  0  0  0  0  0  0  0  0  0  0999 V3000
M  V30 BEGIN CTAB
M  V30 COUNTS 99 108 0 0 0
M  V30 BEGIN ATOM
M  V30 1 Pd 0.5583 -5.6743 -4.5558 0
M  V30 2 Pb 0.2220 -4.7383 -4.4831 0
M  V30 3 Pb 1.0186 -6.5717 -4.4864 0
M  V30 4 Pb 1.1890 -5.4278 -5.2874 0
M  V30 5 Pb -0.0466 -5.8797 -3.7906 0
M  V30 6 Pd 5.2310 -7.2789 -2.2012 0
M  V30 7 Pb 4.8516 -7.6244 -1.3444 0
M  V30 8 Pb 5.5901 -6.9139 -3.0565 0
M  V30 9 Pb 4.5174 -7.7636 -2.7292 0
M  V30 10 Pb 5.8198 -6.6682 -1.6736 0
M  V30 11 Pd 1.3976 4.9304 3.0401 0
M  V30 12 Pb 1.4926 5.7468 2.4790 0
M  V30 13 Pb 1.2172 4.0786 3.5275 0
M  V30 14 Pb 0.6509 5.3929 3.5220 0
M  V30 15 Pb 2.1427 4.4886 2.5381 0
M  V30 16 Pd -4.2496 5.6834 2.8435 0
M  V30 17 Pb -4.1293 4.7711 3.2409 0
M  V30 18 Pb -4.3658 6.5231 2.3105 0
M  V30 19 Pb -5.1215 5.3811 2.4702 0
M  V30 20 Pb -3.4063 6.0004 3.2842 0
M  V30 21 Pd 2.1128 0.7779 -0.6258 0
M  V30 22 Pb 1.7881 1.4424 -1.3010 0
M  V30 23 Pb 2.4303 0.1391 0.0843 0
M  V30 24 Pb 2.6481 1.4813 -0.1545 0
M  V30 25 Pb 1.5759 0.1077 -1.1421 0
M  V30 26 Pd 3.5832 -4.5113 1.7902 0
M  V30 27 Pb 3.6058 -5.5061 1.6990 0
M  V30 28 Pb 2.7598 -4.5843 2.3560 0
M  V30 29 Pb 4.4471 -4.4694 1.2818 0
M  V30 30 Pb 3.5449 -3.5120 1.8683 0
M  V30 31 Pd -2.9258 6.2710 -2.0939 0
M  V30 32 Pb -2.2399 5.7056 -2.5522 0
M  V30 33 Pb -3.6378 5.6388 -2.4113 0
M  V30 34 Pb -2.1839 6.8502 -1.7670 0
M  V30 35 Pb -3.5544 6.8259 -1.5423 0
M  V30 36 Pd -1.1059 -2.2002 1.7918 0
M  V30 37 Pb -1.3291 -1.5472 1.0653 0
M  V30 38 Pb -0.8152 -1.4658 2.4059 0
M  V30 39 Pb -1.3715 -2.9608 1.2008 0
M  V30 40 Pb -0.7912 -2.8672 2.4619 0
M  V30 41 Pd -4.6897 1.8694 -0.0239 0
M  V30 42 Pb -5.5057 2.3648 0.2525 0
M  V30 43 Pb -4.4795 1.7136 0.9435 0
M  V30 44 Pb -4.8661 2.1761 -0.9593 0
M  V30 45 Pb -3.8661 1.3776 -0.3045 0
M  V30 46 Ag 1.7868 -5.3054 -5.7094 0
M  V30 47 Fe 4.0350 -5.7794 -5.1906 0
M  V30 48 Ag 5.6828 -6.6151 -3.7295 0
M  V30 49 Ag -0.4951 -5.9290 -3.1955 0
M  V30 50 Fe -1.0840 -4.8117 -1.1869 0
M  V30 51 Ag -1.5355 -3.5543 0.7739 0
M  V30 52 Ag 1.4424 6.3182 2.0048 0
M  V30 53 Fe 0.0382 6.9796 0.2172 0
M  V30 54 Ag -1.6007 7.2122 -1.4756 0
M  V30 55 Ag 1.5062 1.9152 -1.8126 0
M  V30 56 Fe -0.0728 3.6002 -2.3726 0
M  V30 57 Ag -1.6873 5.2819 -2.8316 0
M  V30 58 Ag 0.0112 -4.0433 -4.3032 0
M  V30 59 Fe 0.5779 -2.1613 -2.9678 0
M  V30 60 Ag 1.1506 -0.2908 -1.6187 0
M  V30 61 Ag 1.0410 3.4183 3.8315 0
M  V30 62 Fe 0.2353 1.2281 3.3946 0
M  V30 63 Ag -0.5761 -0.9458 2.8915 0
M  V30 64 Ba 0.1099 5.7852 3.8667 0
M  V30 65 Ga -1.3498 5.9804 3.7381 0
M  V30 66 Ba -2.8051 6.2315 3.6744 0
M  V30 67 Ba -1.4368 -1.0853 0.4817 0
M  V30 68 Ga -2.3673 -0.0380 0.0173 0
M  V30 69 Ba -3.2467 1.0171 -0.5233 0
M  V30 70 Ba 6.1780 -6.1521 -1.2647 0
M  V30 71 Ga 5.6795 -5.3026 -0.1635 0
M  V30 72 Ba 5.1135 -4.4863 0.9304 0
M  V30 73 Ba 1.4051 -7.2236 -4.4088 0
M  V30 74 Ga 2.6829 -7.6436 -3.7644 0
M  V30 75 Ba 3.9561 -8.0897 -3.1286 0
M  V30 76 Ba -4.1164 5.1171 -2.6706 0
M  V30 77 Ga -4.5804 3.8045 -2.1714 0
M  V30 78 Ba -5.0120 2.5021 -1.6198 0
M  V30 79 Ba -5.7656 5.1293 2.1926 0
M  V30 80 Ga -6.0157 3.9698 1.3332 0
M  V30 81 Ba -6.0776 2.7817 0.4791 0
M  V30 82 Ba 2.7094 -0.2263 0.6851 0
M  V30 83 Ga 3.0826 -1.5446 1.2462 0
M  V30 84 Ba 3.5089 -2.7665 1.9663 0
M  V30 85 Ba 4.5662 -7.8463 -0.6888 0
M  V30 86 Ga 4.0891 -7.0825 0.4772 0
M  V30 87 Ba 3.6311 -6.2486 1.6021 0
M  V30 88 Ba 2.1608 -4.6489 2.8056 0
M  V30 89 Ga 0.8259 -4.0286 2.8846 0
M  V30 90 Ba -0.4968 -3.3793 2.9187 0
M  V30 91 Ba 2.7084 4.1733 2.1574 0
M  V30 92 Ga 2.8656 3.0786 1.1785 0
M  V30 93 Ba 3.0707 1.9933 0.1981 0
M  V30 94 Ba -4.0559 4.0510 3.4475 0
M  V30 95 Ga -4.1761 2.8287 2.6224 0
M  V30 96 Ba -4.3247 1.6978 1.6799 0
M  V30 97 Ba -4.5053 7.0824 1.8271 0
M  V30 98 Ga -4.2388 7.2071 0.3761 0
M  V30 99 Ba -3.9427 7.2711 -1.0731 0
M  V30 END ATOM
M  V30 BEGIN BOND
M  V30 1 1 1 2
M  V30 2 1 1 3
M  V30 3 1 1 4
M  V30 4 1 1 5
M  V30 5 1 6 7
M  V30 6 1 6 8
M  V30 7 1 6 9
M  V30 8 1 6 10
M  V30 9 1 11 12
M  V30 10 1 11 13
M  V30 11 1 11 14
M  V30 12 1 11 15
M  V30 13 1 16 17
M  V30 14 1 16 18
M  V30 15 1 16 19
M  V30 16 1 16 20
M  V30 17 1 21 22
M  V30 18 1 21 23
M  V30 19 1 21 24
M  V30 20 1 21 25
M  V30 21 1 26 27
M  V30 22 1 26 28
M  V30 23 1 26 29
M  V30 24 1 26 30
M  V30 25 1 31 32
M  V30 26 1 31 33
M  V30 27 1 31 34
M  V30 28 1 31 35
M  V30 29 1 36 37
M  V30 30 1 36 38
M  V30 31 1 36 39
M  V30 32 1 36 40
M  V30 33 1 41 42
M  V30 34 1 41 43
M  V30 35 1 41 44
M  V30 36 1 41 45
M  V30 37 1 46 47
M  V30 38 1 47 48
M  V30 39 1 49 50
M  V30 40 1 50 51
M  V30 41 1 52 53
M  V30 42 1 53 54
M  V30 43 1 55 56
M  V30 44 1 56 57
M  V30 45 1 58 59
M  V30 46 1 59 60
M  V30 47 1 61 62
M  V30 48 1 62 63
M  V30 49 1 64 65
M  V30 50 1 65 66
M  V30 51 1 67 68
M  V30 52 1 68 69
M  V30 53 1 70 71
M  V30 54 1 71 72
M  V30 55 1 73 74
M  V30 56 1 74 75
M  V30 57 1 76 77
M  V30 58 1 77 78
M  V30 59 1 79 80
M  V30 60 1 80 81
M  V30 61 1 82 83
M  V30 62 1 83 84
M  V30 63 1 85 86
M  V30 64 1 86 87
M  V30 65 1 88 89
M  V30 66 1 89 90
M  V30 67 1 91 92
M  V30 68 1 92 93
M  V30 69 1 94 95
M  V30 70 1 95 96
M  V30 71 1 97 98
M  V30 72 1 98 99
M  V30 73 1 2 58
M  V30 74 1 3 73
M  V30 75 1 4 46
M  V30 76 1 5 49
M  V30 77 1 7 85
M  V30 78 1 8 48
M  V30 79 1 9 75
M  V30 80 1 10 70
M  V30 81 1 12 52
M  V30 82 1 13 61
M  V30 83 1 14 64
M  V30 84 1 15 91
M  V30 85 1 17 94
M  V30 86 1 18 97
M  V30 87 1 19 79
M  V30 88 1 20 66
M  V30 89 1 22 55
M  V30 90 1 23 82
M  V30 91 1 24 93
M  V30 92 1 25 60
M  V30 93 1 27 87
M  V30 94 1 28 88
M  V30 95 1 29 72
M  V30 96 1 30 84
M  V30 97 1 32 57
M  V30 98 1 33 76
M  V30 99 1 34 54
M  V30 100 1 35 99
M  V30 101 1 37 67
M  V30 102 1 38 63
M  V30 103 1 39 51
M  V30 104 1 40 90
M  V30 105 1 42 81
M  V30 106 1 43 96
M  V30 107 1 44 78
M  V30 108 1 45 69
M  V30 END BOND
M  V30 END CTAB
M  END

$$$$
