
     RDKit          3D

  0  0  0  0  0  0  0  0  0  0999 V3000
M  V30 BEGIN CTAB
M  V30 COUNTS 99 108 0 0 0
M  V30 BEGIN ATOM
M  V30 1 Pd 0.3133 2.6216 3.7046 0
M  V30 2 Pb 0.9492 3.3940 3.7722 0
M  V30 3 Pb 0.1028 2.9325 2.7802 0
M  V30 4 Pb 0.5265 2.2912 4.6274 0
M  V30 5 Pb -0.3892 1.9113 3.6376 0
M  V30 6 Pd -5.7921 -0.0639 -4.7738 0
M  V30 7 Pb -5.2364 -0.8615 -5.0295 0
M  V30 8 Pb -6.3828 0.7204 -4.6119 0
M  V30 9 Pb -6.4708 -0.5890 -4.2614 0
M  V30 10 Pb -5.1078 0.5583 -5.1591 0
M  V30 11 Pd 5.2669 -0.4607 -3.4677 0
M  V30 12 Pb 6.0004 -0.0927 -2.9034 0
M  V30 13 Pb 4.5227 -0.8355 -4.0226 0
M  V30 14 Pb 5.5875 -1.3861 -3.2744 0
M  V30 15 Pb 4.8985 0.4723 -3.4972 0
M  V30 16 Pd 3.7796 -4.7315 2.1693 0
M  V30 17 Pb 4.3961 -4.7664 1.3823 0
M  V30 18 Pb 4.5111 -4.3897 2.7577 0
M  V30 19 Pb 3.0552 -5.0786 1.5739 0
M  V30 20 Pb 3.1473 -4.6497 2.9432 0
M  V30 21 Pd -1.5596 -4.0369 -3.6420 0
M  V30 22 Pb -2.1933 -3.6416 -4.3120 0
M  V30 23 Pb -0.7766 -3.7103 -4.1727 0
M  V30 24 Pb -0.9623 -4.4799 -2.9720 0
M  V30 25 Pb -2.3310 -4.3041 -3.0735 0
M  V30 26 Pd 3.6143 -1.1625 5.9912 0
M  V30 27 Pb 4.3728 -1.7241 5.6628 0
M  V30 28 Pb 4.2335 -0.3876 6.0974 0
M  V30 29 Pb 2.8639 -0.5721 6.2971 0
M  V30 30 Pb 2.9994 -1.9381 5.8353 0
M  V30 31 Pd 5.2435 4.3337 1.7881 0
M  V30 32 Pb 4.4554 4.7579 2.2346 0
M  V30 33 Pb 5.6017 4.1348 2.6962 0
M  V30 34 Pb 4.8565 4.4078 0.8644 0
M  V30 35 Pb 6.0072 3.8515 1.3694 0
M  V30 36 Pd -6.1951 -0.2933 0.4298 0
M  V30 37 Pb -6.0037 -1.2619 0.3060 0
M  V30 38 Pb -6.3595 0.6910 0.5409 0
M  V30 39 Pb -6.8604 -0.4126 -0.3126 0
M  V30 40 Pb -5.4896 -0.2493 1.1398 0
M  V30 41 Pd -4.5882 3.8816 -2.2533 0
M  V30 42 Pb -5.4858 3.8304 -2.6742 0
M  V30 43 Pb -3.6844 3.9307 -1.8340 0
M  V30 44 Pb -5.0417 3.9059 -1.3630 0
M  V30 45 Pb -4.1749 3.7143 -3.1518 0
M  V30 46 Ag -2.8926 -4.4345 -2.6026 0
M  V30 47 Fe -4.4360 -3.3419 -1.1776 0
M  V30 48 Ag -5.8438 -1.9709 0.1435 0
M  V30 49 Ag 2.5427 -5.3512 1.0991 0
M  V30 50 Fe 0.9947 -5.0532 -0.6782 0
M  V30 51 Ag -0.5736 -4.8571 -2.4516 0
M  V30 52 Ag 4.6545 1.1771 -3.3842 0
M  V30 53 Fe 4.5610 2.8677 -1.7099 0
M  V30 54 Ag 4.6180 4.3534 0.1502 0
M  V30 55 Ag 6.4992 0.2330 -2.4553 0
M  V30 56 Fe 6.6919 1.8200 -0.7077 0
M  V30 57 Ag 6.5144 3.4407 1.0102 0
M  V30 58 Ag 5.7830 -2.0601 -3.0146 0
M  V30 59 Fe 5.3903 -3.5124 -1.1782 0
M  V30 60 Ag 4.8151 -4.7569 0.7601 0
M  V30 61 Ag -0.9451 1.4065 3.6117 0
M  V30 62 Fe -2.9428 0.5868 2.6182 0
M  V30 63 Ag -4.9421 -0.2647 1.6551 0
M  V30 64 Ag -0.0364 3.1783 2.0878 0
M  V30 65 Fe -1.5295 3.5662 0.2857 0
M  V30 66 Ag -3.0016 3.9649 -1.5315 0
M  V30 67 Ag 4.6772 0.2132 6.1171 0
M  V30 68 Fe 5.3549 2.1139 4.8735 0
M  V30 69 Ag 5.8023 3.8929 3.3726 0
M  V30 70 Ag 3.9751 -1.1508 -4.4287 0
M  V30 71 Fe 1.8914 -2.2898 -4.5133 0
M  V30 72 Ag -0.1946 -3.4269 -4.5530 0
M  V30 73 Ba -4.8371 -1.4345 -5.3167 0
M  V30 74 Ga -3.7491 -2.3869 -5.0006 0
M  V30 75 Ba -2.6804 -3.3971 -4.8318 0
M  V30 76 Ba 1.3632 4.0232 3.7798 0
M  V30 77 Ga 2.6300 4.5150 3.1991 0
M  V30 78 Ba 3.8905 5.0441 2.6377 0
M  V30 79 Ba 5.0400 -4.1284 3.2192 0
M  V30 80 Ga 5.0135 -3.1396 4.3116 0
M  V30 81 Ba 4.9329 -2.1432 5.3943 0
M  V30 82 Ba -4.6143 1.0875 -5.3659 0
M  V30 83 Ga -4.2159 2.3181 -4.6467 0
M  V30 84 Ba -3.9066 3.5099 -3.8255 0
M  V30 85 Ba -6.8211 1.3118 -4.4964 0
M  V30 86 Ga -6.5642 2.5555 -3.7681 0
M  V30 87 Ba -6.1427 3.7307 -3.0044 0
M  V30 88 Ba 2.6846 -4.5568 3.5298 0
M  V30 89 Ga 2.6071 -3.5570 4.6164 0
M  V30 90 Ba 2.5679 -2.5354 5.6846 0
M  V30 91 Ba -7.0141 -0.8473 -3.8117 0
M  V30 92 Ga -7.1852 -0.7523 -2.3443 0
M  V30 93 Ba -7.3150 -0.6322 -0.8744 0
M  V30 94 Ba 0.6479 2.0119 5.3163 0
M  V30 95 Ga 1.4967 0.9566 5.9109 0
M  V30 96 Ba 2.3336 -0.0926 6.5327 0
M  V30 97 Ba -6.4337 1.4325 0.6575 0
M  V30 98 Ga -5.9433 2.6542 -0.0155 0
M  V30 99 Ba -5.4327 3.8462 -0.7256 0
M  V30 END ATOM
M  V30 BEGIN BOND
M  V30 1 1 1 2
M  V30 2 1 1 3
M  V30 3 1 1 4
M  V30 4 1 1 5
M  V30 5 1 6 7
M  V30 6 1 6 8
M  V30 7 1 6 9
M  V30 8 1 6 10
M  V30 9 1 11 12
M  V30 10 1 11 13
M  V30 11 1 11 14
M  V30 12 1 11 15
M  V30 13 1 16 17
M  V30 14 1 16 18
M  V30 15 1 16 19
M  V30 16 1 16 20
M  V30 17 1 21 22
M  V30 18 1 21 23
M  V30 19 1 21 24
M  V30 20 1 21 25
M  V30 21 1 26 27
M  V30 22 1 26 28
M  V30 23 1 26 29
M  V30 24 1 26 30
M  V30 25 1 31 32
M  V30 26 1 31 33
M  V30 27 1 31 34
M  V30 28 1 31 35
M  V30 29 1 36 37
M  V30 30 1 36 38
M  V30 31 1 36 39
M  V30 32 1 36 40
M  V30 33 1 41 42
M  V30 34 1 41 43
M  V30 35 1 41 44
M  V30 36 1 41 45
M  V30 37 1 46 47
M  V30 38 1 47 48
M  V30 39 1 49 50
M  V30 40 1 50 51
M  V30 41 1 52 53
M  V30 42 1 53 54
M  V30 43 1 55 56
M  V30 44 1 56 57
M  V30 45 1 58 59
M  V30 46 1 59 60
M  V30 47 1 61 62
M  V30 48 1 62 63
M  V30 49 1 64 65
M  V30 50 1 65 66
M  V30 51 1 67 68
M  V30 52 1 68 69
M  V30 53 1 70 71
M  V30 54 1 71 72
M  V30 55 1 73 74
M  V30 56 1 74 75
M  V30 57 1 76 77
M  V30 58 1 77 78
M  V30 59 1 79 80
M  V30 60 1 80 81
M  V30 61 1 82 83
M  V30 62 1 83 84
M  V30 63 1 85 86
M  V30 64 1 86 87
M  V30 65 1 88 89
M  V30 66 1 89 90
M  V30 67 1 91 92
M  V30 68 1 92 93
M  V30 69 1 94 95
M  V30 70 1 95 96
M  V30 71 1 97 98
M  V30 72 1 98 99
M  V30 73 1 2 76
M  V30 74 1 3 64
M  V30 75 1 4 94
M  V30 76 1 5 61
M  V30 77 1 7 73
M  V30 78 1 8 85
M  V30 79 1 9 91
M  V30 80 1 10 82
M  V30 81 1 12 55
M  V30 82 1 13 70
M  V30 83 1 14 58
M  V30 84 1 15 52
M  V30 85 1 17 60
M  V30 86 1 18 79
M  V30 87 1 19 49
M  V30 88 1 20 88
M  V30 89 1 22 75
M  V30 90 1 23 72
M  V30 91 1 24 51
M  V30 92 1 25 46
M  V30 93 1 27 81
M  V30 94 1 28 67
M  V30 95 1 29 96
M  V30 96 1 30 90
M  V30 97 1 32 78
M  V30 98 1 33 69
M  V30 99 1 34 54
M  V30 100 1 35 57
M  V30 101 1 37 48
M  V30 102 1 38 97
M  V30 103 1 39 93
M  V30 104 1 40 63
M  V30 105 1 42 87
M  V30 106 1 43 66
M  V30 107 1 44 99
M  V30 108 1 45 84
M  V30 END BOND
M  V30 END CTAB
M  END

$$$$
