
     RDKit          3D

  0  0  0  0  0  0  0  0  0  0999 V3000
M  V30 BEGIN CTAB
M  V30 COUNTS 99 108 0 0 0
M  V30 BEGIN ATOM
M  V30 1 Pd 1.3922 1.8363 4.6260 0
M  V30 2 Pb 1.1023 1.4303 5.4940 0
M  V30 3 Pb 1.7585 0.9416 4.3692 0
M  V30 4 Pb 0.9829 2.7164 4.8687 0
M  V30 5 Pb 1.6495 2.2299 3.7441 0
M  V30 6 Pd 5.4562 -4.2591 -4.6842 0
M  V30 7 Pb 4.6771 -4.3213 -5.3090 0
M  V30 8 Pb 6.2202 -4.1616 -4.0593 0
M  V30 9 Pb 5.9370 -3.5808 -5.2322 0
M  V30 10 Pb 4.9736 -4.7438 -3.9521 0
M  V30 11 Pd -4.8937 -2.9335 -0.4760 0
M  V30 12 Pb -4.2133 -3.2929 0.1723 0
M  V30 13 Pb -4.4041 -3.2990 -1.2691 0
M  V30 14 Pb -5.5581 -2.4723 -1.0638 0
M  V30 15 Pb -5.4030 -2.6143 0.3139 0
M  V30 16 Pd -5.3677 2.2575 -2.2521 0
M  V30 17 Pb -5.8933 1.4038 -2.1931 0
M  V30 18 Pb -5.7830 2.6439 -1.3994 0
M  V30 19 Pb -4.9124 1.9080 -3.0701 0
M  V30 20 Pb -4.8828 3.1107 -2.3910 0
M  V30 21 Pd 0.2976 -1.8988 -5.8613 0
M  V30 22 Pb 1.0008 -2.5831 -6.0726 0
M  V30 23 Pb -0.3469 -2.6175 -5.6084 0
M  V30 24 Pb -0.4494 -1.2415 -5.7576 0
M  V30 25 Pb 0.9365 -1.1415 -5.9943 0
M  V30 26 Pd -4.6131 5.3573 2.8360 0
M  V30 27 Pb -5.2796 4.9012 2.2087 0
M  V30 28 Pb -4.9054 4.8268 3.6303 0
M  V30 29 Pb -3.8620 5.6797 3.4089 0
M  V30 30 Pb -4.2782 5.9085 2.0829 0
M  V30 31 Pd -3.0184 -0.8652 6.1621 0
M  V30 32 Pb -2.1430 -0.6507 6.5990 0
M  V30 33 Pb -3.4485 -0.0559 6.5517 0
M  V30 34 Pb -3.8862 -1.0372 5.7119 0
M  V30 35 Pb -2.6408 -1.6196 5.6171 0
M  V30 36 Pd 5.4666 1.9617 -1.9869 0
M  V30 37 Pb 4.9022 1.9953 -2.8125 0
M  V30 38 Pb 6.0010 1.8900 -1.1382 0
M  V30 39 Pb 6.1373 1.5129 -2.5798 0
M  V30 40 Pb 4.7560 2.3941 -1.4351 0
M  V30 41 Pd 5.3218 -1.5824 1.7089 0
M  V30 42 Pb 6.1136 -1.8103 1.1567 0
M  V30 43 Pb 4.5327 -1.4215 2.3040 0
M  V30 44 Pb 5.7263 -0.6779 1.8464 0
M  V30 45 Pb 4.9199 -2.4517 1.4026 0
M  V30 46 Ag 1.3877 -0.5425 -6.0090 0
M  V30 47 Fe 2.9593 0.7540 -4.7873 0
M  V30 48 Ag 4.5169 1.9560 -3.4558 0
M  V30 49 Ag -4.5404 1.6793 -3.6792 0
M  V30 50 Fe -2.7781 0.4347 -4.6722 0
M  V30 51 Ag -1.0411 -0.7796 -5.7442 0
M  V30 52 Ag -5.7350 -2.4035 0.9432 0
M  V30 53 Fe -5.2895 -1.7564 3.1733 0
M  V30 54 Ag -4.5064 -1.1457 5.3190 0
M  V30 55 Ag 4.6771 -4.9624 -3.2947 0
M  V30 56 Fe 4.5645 -4.1651 -1.0533 0
M  V30 57 Ag 4.6545 -3.0719 1.0610 0
M  V30 58 Ag 6.7434 -4.0100 -3.5573 0
M  V30 59 Fe 6.9465 -3.0492 -1.4093 0
M  V30 60 Ag 6.6550 -2.0488 0.7104 0
M  V30 61 Ag -3.7319 -3.4831 0.7246 0
M  V30 62 Fe -3.0004 -2.9151 2.9206 0
M  V30 63 Ag -2.4532 -2.1467 5.1091 0
M  V30 64 Ag -4.5522 3.7707 -2.4035 0
M  V30 65 Fe -4.0736 5.3664 -0.7446 0
M  V30 66 Ag -4.0439 6.2068 1.4505 0
M  V30 67 Ag 6.3326 -2.9725 -5.4099 0
M  V30 68 Fe 6.5856 -0.8276 -4.4219 0
M  V30 69 Ag 6.5144 1.1645 -3.1296 0
M  V30 70 Ag 0.6430 3.3723 4.9993 0
M  V30 71 Fe -1.2585 4.7046 4.5034 0
M  V30 72 Ag -3.2554 5.7978 3.8305 0
M  V30 73 Ag 1.8119 2.5453 3.0838 0
M  V30 74 Fe 3.0215 2.6253 1.0429 0
M  V30 75 Ag 4.2337 2.7015 -0.9965 0
M  V30 76 Ag -5.0259 4.4607 4.2730 0
M  V30 77 Fe -4.5071 2.5619 5.5977 0
M  V30 78 Ag -3.8365 0.5662 6.6910 0
M  V30 79 Ag -4.0560 -3.5867 -1.8695 0
M  V30 80 Fe -2.4686 -3.4018 -3.6263 0
M  V30 81 Ag -0.8512 -3.1000 -5.3387 0
M  V30 82 Ba 4.0963 -4.3800 -5.7808 0
M  V30 83 Ga 2.7948 -3.7137 -5.9963 0
M  V30 84 Ba 1.4758 -3.1217 -6.3018 0
M  V30 85 Ba 0.8856 1.0914 6.1285 0
M  V30 86 Ga -0.3051 0.3167 6.5337 0
M  V30 87 Ba -1.4981 -0.4572 6.9333 0
M  V30 88 Ba -6.1242 2.9488 -0.7754 0
M  V30 89 Ga -5.8687 3.7487 0.4709 0
M  V30 90 Ba -5.7811 4.5354 1.7485 0
M  V30 91 Ba -6.0655 -2.0755 -1.4486 0
M  V30 92 Ga -6.1678 -0.6519 -1.8350 0
M  V30 93 Ba -6.2962 0.7669 -2.2308 0
M  V30 94 Ba 6.3197 1.8663 -0.4528 0
M  V30 95 Ga 6.2204 0.9469 0.7047 0
M  V30 96 Ba 6.0819 -0.0160 1.8220 0
M  V30 97 Ba 1.9782 0.2407 4.2171 0
M  V30 98 Ga 2.9972 -0.5078 3.4556 0
M  V30 99 Ba 3.9351 -1.4099 2.7593 0
M  V30 END ATOM
M  V30 BEGIN BOND
M  V30 1 1 1 2
M  V30 2 1 1 3
M  V30 3 1 1 4
M  V30 4 1 1 5
M  V30 5 1 6 7
M  V30 6 1 6 8
M  V30 7 1 6 9
M  V30 8 1 6 10
M  V30 9 1 11 12
M  V30 10 1 11 13
M  V30 11 1 11 14
M  V30 12 1 11 15
M  V30 13 1 16 17
M  V30 14 1 16 18
M  V30 15 1 16 19
M  V30 16 1 16 20
M  V30 17 1 21 22
M  V30 18 1 21 23
M  V30 19 1 21 24
M  V30 20 1 21 25
M  V30 21 1 26 27
M  V30 22 1 26 28
M  V30 23 1 26 29
M  V30 24 1 26 30
M  V30 25 1 31 32
M  V30 26 1 31 33
M  V30 27 1 31 34
M  V30 28 1 31 35
M  V30 29 1 36 37
M  V30 30 1 36 38
M  V30 31 1 36 39
M  V30 32 1 36 40
M  V30 33 1 41 42
M  V30 34 1 41 43
M  V30 35 1 41 44
M  V30 36 1 41 45
M  V30 37 1 46 47
M  V30 38 1 47 48
M  V30 39 1 49 50
M  V30 40 1 50 51
M  V30 41 1 52 53
M  V30 42 1 53 54
M  V30 43 1 55 56
M  V30 44 1 56 57
M  V30 45 1 58 59
M  V30 46 1 59 60
M  V30 47 1 61 62
M  V30 48 1 62 63
M  V30 49 1 64 65
M  V30 50 1 65 66
M  V30 51 1 67 68
M  V30 52 1 68 69
M  V30 53 1 70 71
M  V30 54 1 71 72
M  V30 55 1 73 74
M  V30 56 1 74 75
M  V30 57 1 76 77
M  V30 58 1 77 78
M  V30 59 1 79 80
M  V30 60 1 80 81
M  V30 61 1 82 83
M  V30 62 1 83 84
M  V30 63 1 85 86
M  V30 64 1 86 87
M  V30 65 1 88 89
M  V30 66 1 89 90
M  V30 67 1 91 92
M  V30 68 1 92 93
M  V30 69 1 94 95
M  V30 70 1 95 96
M  V30 71 1 97 98
M  V30 72 1 98 99
M  V30 73 1 2 85
M  V30 74 1 3 97
M  V30 75 1 4 70
M  V30 76 1 5 73
M  V30 77 1 7 82
M  V30 78 1 8 58
M  V30 79 1 9 67
M  V30 80 1 10 55
M  V30 81 1 12 61
M  V30 82 1 13 79
M  V30 83 1 14 91
M  V30 84 1 15 52
M  V30 85 1 17 93
M  V30 86 1 18 88
M  V30 87 1 19 49
M  V30 88 1 20 64
M  V30 89 1 22 84
M  V30 90 1 23 81
M  V30 91 1 24 51
M  V30 92 1 25 46
M  V30 93 1 27 90
M  V30 94 1 28 76
M  V30 95 1 29 72
M  V30 96 1 30 66
M  V30 97 1 32 87
M  V30 98 1 33 78
M  V30 99 1 34 54
M  V30 100 1 35 63
M  V30 101 1 37 48
M  V30 102 1 38 94
M  V30 103 1 39 69
M  V30 104 1 40 75
M  V30 105 1 42 60
M  V30 106 1 43 99
M  V30 107 1 44 96
M  V30 108 1 45 57
M  V30 END BOND
M  V30 END CTAB
M  END

$$$$
