
     RDKit          3D

  0  0  0  0  0  0  0  0  0  0999 V3000
M  V30 BEGIN CTAB
M  V30 COUNTS 99 108 0 0 0
M  V30 BEGIN ATOM
M  V30 1 Pd -3.8439 0.0248 3.6434 0
M  V30 2 Pb -3.3936 0.9097 3.7920 0
M  V30 3 Pb -4.3379 -0.8461 3.5835 0
M  V30 4 Pb -3.0287 -0.4906 3.9137 0
M  V30 5 Pb -4.6451 0.5257 3.3125 0
M  V30 6 Pd -2.0133 -4.5777 -4.0532 0
M  V30 7 Pb -1.1972 -4.1778 -3.6332 0
M  V30 8 Pb -2.8646 -4.9723 -4.3920 0
M  V30 9 Pb -2.2533 -3.7193 -4.5016 0
M  V30 10 Pb -1.9381 -5.3807 -3.4611 0
M  V30 11 Pd 5.6561 5.4065 -1.3745 0
M  V30 12 Pb 4.8979 5.9984 -1.0999 0
M  V30 13 Pb 5.2197 5.2505 -2.2562 0
M  V30 14 Pb 6.3723 4.7484 -1.6174 0
M  V30 15 Pb 6.0084 5.5194 -0.4465 0
M  V30 16 Pd 6.0500 -0.0853 -1.2214 0
M  V30 17 Pb 6.5950 0.6977 -1.5371 0
M  V30 18 Pb 5.5187 -0.8690 -0.8930 0
M  V30 19 Pb 5.7799 -0.3116 -2.1604 0
M  V30 20 Pb 6.3283 0.1008 -0.2788 0
M  V30 21 Pd 1.4552 0.0506 -3.7390 0
M  V30 22 Pb 1.2227 -0.8408 -3.3471 0
M  V30 23 Pb 1.7365 0.9314 -4.1113 0
M  V30 24 Pb 2.3134 -0.3305 -4.0807 0
M  V30 25 Pb 0.6639 0.4959 -3.3156 0
M  V30 26 Pd 3.8035 -1.2669 3.4549 0
M  V30 27 Pb 3.8458 -1.7938 2.6055 0
M  V30 28 Pb 3.7377 -0.7034 4.2753 0
M  V30 29 Pb 2.9047 -1.6391 3.6872 0
M  V30 30 Pb 4.6776 -0.8414 3.2188 0
M  V30 31 Pd 1.8179 5.4557 4.5276 0
M  V30 32 Pb 0.8449 5.2232 4.5666 0
M  V30 33 Pb 2.0195 4.7712 5.2225 0
M  V30 34 Pb 2.7983 5.6126 4.4073 0
M  V30 35 Pb 1.6782 6.0627 3.7470 0
M  V30 36 Pd -5.8287 0.9108 -1.2893 0
M  V30 37 Pb -4.9531 1.3890 -1.2818 0
M  V30 38 Pb -6.6649 0.3622 -1.2834 0
M  V30 39 Pb -5.5515 0.5709 -2.1894 0
M  V30 40 Pb -6.0646 1.2344 -0.3707 0
M  V30 41 Pd -7.1432 -5.9383 0.0010 0
M  V30 42 Pb -7.2270 -6.1813 -0.9619 0
M  V30 43 Pb -6.9612 -5.5923 0.9207 0
M  V30 44 Pb -7.8368 -5.2312 -0.1181 0
M  V30 45 Pb -6.3288 -6.5200 0.0259 0
M  V30 46 Ag -3.1325 1.6015 3.9406 0
M  V30 47 Fe -1.4733 3.2780 4.2446 0
M  V30 48 Ag 0.1242 5.0107 4.5645 0
M  V30 49 Ag 0.1260 0.8914 -2.9690 0
M  V30 50 Fe -2.0673 1.2893 -2.1477 0
M  V30 51 Ag -4.2644 1.6770 -1.3319 0
M  V30 52 Ag 6.1451 5.6116 0.2842 0
M  V30 53 Fe 4.9873 5.6860 2.3557 0
M  V30 54 Ag 3.5204 5.6966 4.2227 0
M  V30 55 Ag -2.0391 -5.9285 -2.9577 0
M  V30 56 Fe -3.7290 -6.5945 -1.4252 0
M  V30 57 Ag -5.6670 -6.8611 -0.0756 0
M  V30 58 Ag -3.5336 -5.2752 -4.5277 0
M  V30 59 Fe -5.4843 -5.8837 -3.3284 0
M  V30 60 Ag -7.1518 -6.2914 -1.6956 0
M  V30 61 Ag 4.3210 6.3892 -0.8219 0
M  V30 62 Fe 2.9027 6.5650 1.0740 0
M  V30 63 Ag 1.6863 6.4554 3.1097 0
M  V30 64 Ag -2.5606 -3.0781 -4.7352 0
M  V30 65 Fe -3.9098 -1.3057 -3.9111 0
M  V30 66 Ag -5.2525 0.3330 -2.8366 0
M  V30 67 Ag -2.4361 -0.9241 4.0757 0
M  V30 68 Fe -0.1093 -1.3987 3.9883 0
M  V30 69 Ag 2.2197 -1.8623 3.8971 0
M  V30 70 Ag -7.2578 -0.0933 -1.2246 0
M  V30 71 Fe -7.9256 -2.3225 -0.7574 0
M  V30 72 Ag -8.2451 -4.6211 -0.2600 0
M  V30 73 Ag -4.7080 -1.5019 3.5998 0
M  V30 74 Fe -5.7507 -3.3877 2.5967 0
M  V30 75 Ag -6.7886 -5.2651 1.5728 0
M  V30 76 Ag 3.6351 -0.2429 4.8546 0
M  V30 77 Fe 2.9481 1.9495 5.4369 0
M  V30 78 Ag 2.2224 4.1955 5.6506 0
M  V30 79 Ag 4.8348 5.0732 -2.8698 0
M  V30 80 Fe 3.4007 3.4052 -3.7512 0
M  V30 81 Ag 2.0066 1.5849 -4.3506 0
M  V30 82 Ba -0.6036 -3.9086 -3.2599 0
M  V30 83 Ga 0.2250 -2.6883 -3.1947 0
M  V30 84 Ba 1.1147 -1.5197 -3.0445 0
M  V30 85 Ba 5.5705 -0.5196 -2.8531 0
M  V30 86 Ga 4.2922 -0.5521 -3.5924 0
M  V30 87 Ba 2.9927 -0.5645 -4.2943 0
M  V30 88 Ba 5.1277 -1.4593 -0.6392 0
M  V30 89 Ga 4.5044 -1.8196 0.6503 0
M  V30 90 Ba 3.8893 -2.1567 1.9500 0
M  V30 91 Ba 6.5353 0.2103 0.4341 0
M  V30 92 Ga 5.9378 -0.1395 1.7371 0
M  V30 93 Ba 5.3182 -0.5012 3.0265 0
M  V30 94 Ba 6.8843 4.2323 -1.8126 0
M  V30 95 Ga 6.9427 2.7536 -1.7794 0
M  V30 96 Ba 7.0272 1.2759 -1.7582 0
M  V30 97 Ba -5.2243 0.9199 3.0410 0
M  V30 98 Ga -5.7428 1.1876 1.6837 0
M  V30 99 Ba -6.2561 1.4515 0.3236 0
M  V30 END ATOM
M  V30 BEGIN BOND
M  V30 1 1 1 2
M  V30 2 1 1 3
M  V30 3 1 1 4
M  V30 4 1 1 5
M  V30 5 1 6 7
M  V30 6 1 6 8
M  V30 7 1 6 9
M  V30 8 1 6 10
M  V30 9 1 11 12
M  V30 10 1 11 13
M  V30 11 1 11 14
M  V30 12 1 11 15
M  V30 13 1 16 17
M  V30 14 1 16 18
M  V30 15 1 16 19
M  V30 16 1 16 20
M  V30 17 1 21 22
M  V30 18 1 21 23
M  V30 19 1 21 24
M  V30 20 1 21 25
M  V30 21 1 26 27
M  V30 22 1 26 28
M  V30 23 1 26 29
M  V30 24 1 26 30
M  V30 25 1 31 32
M  V30 26 1 31 33
M  V30 27 1 31 34
M  V30 28 1 31 35
M  V30 29 1 36 37
M  V30 30 1 36 38
M  V30 31 1 36 39
M  V30 32 1 36 40
M  V30 33 1 41 42
M  V30 34 1 41 43
M  V30 35 1 41 44
M  V30 36 1 41 45
M  V30 37 1 46 47
M  V30 38 1 47 48
M  V30 39 1 49 50
M  V30 40 1 50 51
M  V30 41 1 52 53
M  V30 42 1 53 54
M  V30 43 1 55 56
M  V30 44 1 56 57
M  V30 45 1 58 59
M  V30 46 1 59 60
M  V30 47 1 61 62
M  V30 48 1 62 63
M  V30 49 1 64 65
M  V30 50 1 65 66
M  V30 51 1 67 68
M  V30 52 1 68 69
M  V30 53 1 70 71
M  V30 54 1 71 72
M  V30 55 1 73 74
M  V30 56 1 74 75
M  V30 57 1 76 77
M  V30 58 1 77 78
M  V30 59 1 79 80
M  V30 60 1 80 81
M  V30 61 1 82 83
M  V30 62 1 83 84
M  V30 63 1 85 86
M  V30 64 1 86 87
M  V30 65 1 88 89
M  V30 66 1 89 90
M  V30 67 1 91 92
M  V30 68 1 92 93
M  V30 69 1 94 95
M  V30 70 1 95 96
M  V30 71 1 97 98
M  V30 72 1 98 99
M  V30 73 1 2 46
M  V30 74 1 3 73
M  V30 75 1 4 67
M  V30 76 1 5 97
M  V30 77 1 7 82
M  V30 78 1 8 58
M  V30 79 1 9 64
M  V30 80 1 10 55
M  V30 81 1 12 61
M  V30 82 1 13 79
M  V30 83 1 14 94
M  V30 84 1 15 52
M  V30 85 1 17 96
M  V30 86 1 18 88
M  V30 87 1 19 85
M  V30 88 1 20 91
M  V30 89 1 22 84
M  V30 90 1 23 81
M  V30 91 1 24 87
M  V30 92 1 25 49
M  V30 93 1 27 90
M  V30 94 1 28 76
M  V30 95 1 29 69
M  V30 96 1 30 93
M  V30 97 1 32 48
M  V30 98 1 33 78
M  V30 99 1 34 54
M  V30 100 1 35 63
M  V30 101 1 37 51
M  V30 102 1 38 70
M  V30 103 1 39 66
M  V30 104 1 40 99
M  V30 105 1 42 60
M  V30 106 1 43 75
M  V30 107 1 44 72
M  V30 108 1 45 57
M  V30 END BOND
M  V30 END CTAB
M  END

$$$$
