
     RDKit          3D

  0  0  0  0  0  0  0  0  0  0999 V3000
M  V30 BEGIN CTAB
M  V30 COUNTS 99 108 0 0 0
M  V30 BEGIN ATOM
M  V30 1 Pd 0.0829 1.7293 4.0889 0
M  V30 2 Pb 0.8781 2.2611 4.3833 0
M  V30 3 Pb -0.6686 1.1093 3.8588 0
M  V30 4 Pb 0.2946 1.0814 4.8159 0
M  V30 5 Pb -0.0564 2.3552 3.3122 0
M  V30 6 Pd -8.3764 -0.8552 -2.4963 0
M  V30 7 Pb -7.7692 -0.8924 -3.2889 0
M  V30 8 Pb -8.8674 -0.8084 -1.6138 0
M  V30 9 Pb -8.2575 0.1343 -2.4909 0
M  V30 10 Pb -8.4357 -1.8497 -2.4515 0
M  V30 11 Pd 6.3703 2.2218 -3.6776 0
M  V30 12 Pb 6.1777 2.9755 -3.0504 0
M  V30 13 Pb 5.6081 2.4887 -4.2627 0
M  V30 14 Pb 6.4810 1.3683 -4.1779 0
M  V30 15 Pb 7.0482 1.8986 -3.0242 0
M  V30 16 Pd 3.3685 -4.3502 -2.3724 0
M  V30 17 Pb 4.0723 -3.8693 -2.8940 0
M  V30 18 Pb 2.6642 -4.8643 -1.8995 0
M  V30 19 Pb 2.7309 -4.1602 -3.1215 0
M  V30 20 Pb 3.9858 -4.4571 -1.5624 0
M  V30 21 Pd -1.2212 1.1121 -4.8895 0
M  V30 22 Pb -2.1535 0.7409 -4.8997 0
M  V30 23 Pb -0.3086 1.5015 -5.0179 0
M  V30 24 Pb -0.8729 0.1975 -5.1069 0
M  V30 25 Pb -1.5255 2.0269 -4.6107 0
M  V30 26 Pd 4.1549 -3.8394 3.5655 0
M  V30 27 Pb 3.4121 -4.4627 3.3567 0
M  V30 28 Pb 4.8762 -3.1975 3.8399 0
M  V30 29 Pb 3.6700 -3.5584 4.3891 0
M  V30 30 Pb 4.5814 -4.0677 2.6645 0
M  V30 31 Pd 5.6221 1.6293 3.3286 0
M  V30 32 Pb 4.9228 2.0085 3.9394 0
M  V30 33 Pb 5.7896 0.8078 3.8787 0
M  V30 34 Pb 6.3358 1.3186 2.7063 0
M  V30 35 Pb 5.4976 2.4123 2.7172 0
M  V30 36 Pd -3.1034 3.9201 -0.3526 0
M  V30 37 Pb -2.7085 4.0817 -1.2610 0
M  V30 38 Pb -3.5532 3.7500 0.5216 0
M  V30 39 Pb -4.0021 3.8920 -0.7854 0
M  V30 40 Pb -2.2092 3.9472 0.1015 0
M  V30 41 Pd -6.9516 -1.4928 2.7875 0
M  V30 42 Pb -7.8182 -1.2669 2.3204 0
M  V30 43 Pb -6.0231 -1.6739 3.1023 0
M  V30 44 Pb -6.7749 -0.5336 2.9955 0
M  V30 45 Pb -7.0905 -2.4455 2.5273 0
M  V30 46 Ag -7.2518 -0.8795 -3.8313 0
M  V30 47 Fe -5.0419 -0.2152 -4.4032 0
M  V30 48 Ag -2.8359 0.4377 -5.0025 0
M  V30 49 Ag 2.2515 -3.9582 -3.6645 0
M  V30 50 Fe 0.8100 -2.2602 -4.4969 0
M  V30 51 Ag -0.6004 -0.4928 -5.2324 0
M  V30 52 Ag 2.2090 -5.2230 -1.4422 0
M  V30 53 Fe 2.1475 -5.3638 0.9048 0
M  V30 54 Ag 2.8696 -4.8885 3.0923 0
M  V30 55 Ag 7.4620 1.6381 -2.4621 0
M  V30 56 Fe 7.3341 1.3139 -0.1191 0
M  V30 57 Ag 6.8529 1.1517 2.1949 0
M  V30 58 Ag -8.4235 -2.5572 -2.2264 0
M  V30 59 Fe -7.8834 -3.3745 -0.0816 0
M  V30 60 Ag -7.2357 -3.0786 2.1664 0
M  V30 61 Ag 6.0134 3.4363 -2.4827 0
M  V30 62 Fe 5.6956 3.3682 -0.1297 0
M  V30 63 Ag 5.4516 2.9515 2.1962 0
M  V30 64 Ag 6.5137 0.6679 -4.4317 0
M  V30 65 Fe 5.5987 -1.4714 -3.9706 0
M  V30 66 Ag 4.5615 -3.5072 -3.3315 0
M  V30 67 Ag -8.0975 0.8630 -2.4647 0
M  V30 68 Fe -6.4456 2.4345 -1.8129 0
M  V30 69 Ag -4.6799 3.8470 -1.0980 0
M  V30 70 Ag 0.5078 0.5456 5.2889 0
M  V30 71 Fe 1.8489 -1.4064 5.3367 0
M  V30 72 Ag 3.2712 -3.2592 4.9434 0
M  V30 73 Ag -3.9498 3.5936 1.1358 0
M  V30 74 Fe -5.2780 1.9562 2.2223 0
M  V30 75 Ag -6.5591 0.1715 3.1160 0
M  V30 76 Ag -1.1624 0.5435 3.8114 0
M  V30 77 Fe -3.2492 -0.5576 3.5347 0
M  V30 78 Ag -5.2949 -1.7345 3.2615 0
M  V30 79 Ag 4.9934 2.6526 -4.6553 0
M  V30 80 Fe 2.6704 2.2375 -4.9178 0
M  V30 81 Ag 0.3471 1.8273 -5.1842 0
M  V30 82 Ba 1.4863 2.6015 4.6642 0
M  V30 83 Ga 2.9492 2.4719 4.4932 0
M  V30 84 Ba 4.4186 2.3780 4.3600 0
M  V30 85 Ba -1.6726 2.7344 -4.3958 0
M  V30 86 Ga -2.0842 3.4454 -3.1644 0
M  V30 87 Ba -2.4905 4.2191 -1.9696 0
M  V30 88 Ba -9.2088 -0.7746 -0.9341 0
M  V30 89 Ga -8.8123 -0.9431 0.4923 0
M  V30 90 Ba -8.4497 -1.1046 1.9286 0
M  V30 91 Ba 4.4770 -4.5310 -0.9694 0
M  V30 92 Ga 4.6081 -4.3670 0.5185 0
M  V30 93 Ba 4.9029 -4.2562 1.9878 0
M  V30 94 Ba -0.0510 2.8452 2.7349 0
M  V30 95 Ga -0.8554 3.3728 1.6085 0
M  V30 96 Ba -1.5423 3.9887 0.4491 0
M  V30 97 Ba 5.3690 -2.7193 4.1527 0
M  V30 98 Ga 5.6569 -1.2671 4.1627 0
M  V30 99 Ba 6.0005 0.1718 4.2233 0
M  V30 END ATOM
M  V30 BEGIN BOND
M  V30 1 1 1 2
M  V30 2 1 1 3
M  V30 3 1 1 4
M  V30 4 1 1 5
M  V30 5 1 6 7
M  V30 6 1 6 8
M  V30 7 1 6 9
M  V30 8 1 6 10
M  V30 9 1 11 12
M  V30 10 1 11 13
M  V30 11 1 11 14
M  V30 12 1 11 15
M  V30 13 1 16 17
M  V30 14 1 16 18
M  V30 15 1 16 19
M  V30 16 1 16 20
M  V30 17 1 21 22
M  V30 18 1 21 23
M  V30 19 1 21 24
M  V30 20 1 21 25
M  V30 21 1 26 27
M  V30 22 1 26 28
M  V30 23 1 26 29
M  V30 24 1 26 30
M  V30 25 1 31 32
M  V30 26 1 31 33
M  V30 27 1 31 34
M  V30 28 1 31 35
M  V30 29 1 36 37
M  V30 30 1 36 38
M  V30 31 1 36 39
M  V30 32 1 36 40
M  V30 33 1 41 42
M  V30 34 1 41 43
M  V30 35 1 41 44
M  V30 36 1 41 45
M  V30 37 1 46 47
M  V30 38 1 47 48
M  V30 39 1 49 50
M  V30 40 1 50 51
M  V30 41 1 52 53
M  V30 42 1 53 54
M  V30 43 1 55 56
M  V30 44 1 56 57
M  V30 45 1 58 59
M  V30 46 1 59 60
M  V30 47 1 61 62
M  V30 48 1 62 63
M  V30 49 1 64 65
M  V30 50 1 65 66
M  V30 51 1 67 68
M  V30 52 1 68 69
M  V30 53 1 70 71
M  V30 54 1 71 72
M  V30 55 1 73 74
M  V30 56 1 74 75
M  V30 57 1 76 77
M  V30 58 1 77 78
M  V30 59 1 79 80
M  V30 60 1 80 81
M  V30 61 1 82 83
M  V30 62 1 83 84
M  V30 63 1 85 86
M  V30 64 1 86 87
M  V30 65 1 88 89
M  V30 66 1 89 90
M  V30 67 1 91 92
M  V30 68 1 92 93
M  V30 69 1 94 95
M  V30 70 1 95 96
M  V30 71 1 97 98
M  V30 72 1 98 99
M  V30 73 1 2 82
M  V30 74 1 3 76
M  V30 75 1 4 70
M  V30 76 1 5 94
M  V30 77 1 7 46
M  V30 78 1 8 88
M  V30 79 1 9 67
M  V30 80 1 10 58
M  V30 81 1 12 61
M  V30 82 1 13 79
M  V30 83 1 14 64
M  V30 84 1 15 55
M  V30 85 1 17 66
M  V30 86 1 18 52
M  V30 87 1 19 49
M  V30 88 1 20 91
M  V30 89 1 22 48
M  V30 90 1 23 81
M  V30 91 1 24 51
M  V30 92 1 25 85
M  V30 93 1 27 54
M  V30 94 1 28 97
M  V30 95 1 29 72
M  V30 96 1 30 93
M  V30 97 1 32 84
M  V30 98 1 33 99
M  V30 99 1 34 57
M  V30 100 1 35 63
M  V30 101 1 37 87
M  V30 102 1 38 73
M  V30 103 1 39 69
M  V30 104 1 40 96
M  V30 105 1 42 90
M  V30 106 1 43 78
M  V30 107 1 44 75
M  V30 108 1 45 60
M  V30 END BOND
M  V30 END CTAB
M  END

$$$$
