
     RDKit          3D

  0  0  0  0  0  0  0  0  0  0999 V3000
M  V30 BEGIN CTAB
M  V30 COUNTS 99 108 0 0 0
M  V30 BEGIN ATOM
M  V30 1 Pd -4.8817 0.9485 -2.0766 0
M  V30 2 Pb -5.0315 1.7458 -1.4883 0
M  V30 3 Pb -4.8390 0.1785 -2.7180 0
M  V30 4 Pb -5.2992 0.3518 -1.3911 0
M  V30 5 Pb -4.3600 1.5290 -2.7018 0
M  V30 6 Pd 3.6843 -3.2583 -4.2869 0
M  V30 7 Pb 3.3807 -2.8323 -3.4373 0
M  V30 8 Pb 3.8175 -3.6399 -5.1978 0
M  V30 9 Pb 4.2076 -2.4445 -4.5393 0
M  V30 10 Pb 3.0718 -4.0292 -4.1053 0
M  V30 11 Pd 3.2561 2.8280 4.5776 0
M  V30 12 Pb 2.7658 3.2843 3.8318 0
M  V30 13 Pb 4.1074 2.8364 4.0501 0
M  V30 14 Pb 3.6538 2.3179 5.3385 0
M  V30 15 Pb 2.4018 2.8283 5.0862 0
M  V30 16 Pd 1.2291 -1.5179 6.2812 0
M  V30 17 Pb 1.9130 -0.9183 6.7053 0
M  V30 18 Pb 0.5747 -2.1307 5.8387 0
M  V30 19 Pb 1.9558 -1.8408 5.6782 0
M  V30 20 Pb 0.4782 -1.1550 6.8385 0
M  V30 21 Pd 4.3933 0.6751 -0.0222 0
M  V30 22 Pb 3.7808 0.0465 -0.4944 0
M  V30 23 Pb 4.9674 1.2870 0.5216 0
M  V30 24 Pb 4.5265 -0.0393 0.6621 0
M  V30 25 Pb 4.2121 1.4071 -0.6837 0
M  V30 26 Pd -3.9291 -1.0530 5.1250 0
M  V30 27 Pb -3.2845 -1.7996 4.9668 0
M  V30 28 Pb -4.5788 -0.3029 5.2552 0
M  V30 29 Pb -4.4378 -1.2819 4.2938 0
M  V30 30 Pb -3.4031 -0.8024 5.9432 0
M  V30 31 Pd -3.8216 3.4857 2.9521 0
M  V30 32 Pb -4.3446 3.6122 2.1100 0
M  V30 33 Pb -4.6166 3.1403 3.4473 0
M  V30 34 Pb -3.2913 3.3583 3.7833 0
M  V30 35 Pb -2.9767 3.7934 2.5085 0
M  V30 36 Pd 2.0328 1.7339 -5.1110 0
M  V30 37 Pb 2.4580 2.1848 -4.3225 0
M  V30 38 Pb 1.5918 1.3245 -5.9133 0
M  V30 39 Pb 2.8989 1.2527 -5.2631 0
M  V30 40 Pb 1.1579 2.1922 -4.9492 0
M  V30 41 Pd -1.9078 -3.9203 -7.5018 0
M  V30 42 Pb -1.0549 -4.2005 -7.9390 0
M  V30 43 Pb -2.7030 -3.6017 -6.9843 0
M  V30 44 Pb -1.8195 -3.0434 -7.9671 0
M  V30 45 Pb -1.7938 -4.6937 -6.8828 0
M  V30 46 Ag 2.5036 -2.0196 5.2017 0
M  V30 47 Fe 3.6081 -1.3802 3.2019 0
M  V30 48 Ag 4.5674 -0.5674 1.1902 0
M  V30 49 Ag 1.7379 2.8357 5.4213 0
M  V30 50 Fe -0.5893 3.0357 5.0395 0
M  V30 51 Ag -2.8490 3.2628 4.3734 0
M  V30 52 Ag 2.5444 -4.5617 -4.0631 0
M  V30 53 Fe 0.4627 -5.1119 -5.0619 0
M  V30 54 Ag -1.5203 -5.1568 -6.3644 0
M  V30 55 Ag 3.7262 -3.9092 -5.8870 0
M  V30 56 Fe 1.8348 -4.2578 -7.2706 0
M  V30 57 Ag -0.3600 -4.3695 -8.1571 0
M  V30 58 Ag 2.3147 3.5875 3.3112 0
M  V30 59 Fe 0.0378 3.8552 2.6773 0
M  V30 60 Ag -2.2980 3.9909 2.2491 0
M  V30 61 Ag -5.5421 -0.1035 -0.8465 0
M  V30 62 Fe -5.2403 -0.8000 1.4049 0
M  V30 63 Ag -4.8338 -1.4024 3.6669 0
M  V30 64 Ag -3.9102 1.9648 -3.1151 0
M  V30 65 Fe -1.7335 2.2751 -4.0151 0
M  V30 66 Ag 0.4729 2.4896 -4.8697 0
M  V30 67 Ag 1.1874 1.0703 -6.4959 0
M  V30 68 Fe -0.2249 -0.5847 -7.4523 0
M  V30 69 Ag -1.5963 -2.3717 -8.2084 0
M  V30 70 Ag -4.8846 -0.3872 -3.2134 0
M  V30 71 Fe -4.0471 -1.8575 -4.8835 0
M  V30 72 Ag -3.2696 -3.3581 -6.5557 0
M  V30 73 Ba 3.0420 -2.5207 -2.8472 0
M  V30 74 Ga 3.2358 -1.4736 -1.8308 0
M  V30 75 Ba 3.3028 -0.4593 -0.7658 0
M  V30 76 Ba -5.2023 2.3671 -1.1002 0
M  V30 77 Ga -4.9377 3.0087 0.2024 0
M  V30 78 Ba -4.7297 3.7235 1.4770 0
M  V30 79 Ba 4.0677 1.9835 -1.1463 0
M  V30 80 Ga 3.4236 2.2219 -2.4559 0
M  V30 81 Ba 2.7974 2.5460 -3.7559 0
M  V30 82 Ba 0.0804 -2.5871 5.5075 0
M  V30 83 Ga -1.3521 -2.4828 5.1757 0
M  V30 84 Ba -2.7850 -2.3470 4.8577 0
M  V30 85 Ba -0.1147 -0.8879 7.2188 0
M  V30 86 Ga -1.5532 -0.7525 6.8949 0
M  V30 87 Ba -2.9873 -0.6274 6.5480 0
M  V30 88 Ba 3.8384 1.9109 5.9402 0
M  V30 89 Ga 3.1867 0.7036 6.4897 0
M  V30 90 Ba 2.4792 -0.4999 6.9751 0
M  V30 91 Ba 4.5535 -1.8213 -4.7735 0
M  V30 92 Ga 4.0703 -0.4542 -5.0556 0
M  V30 93 Ba 3.5631 0.9054 -5.3315 0
M  V30 94 Ba -5.0854 0.2508 5.2830 0
M  V30 95 Ga -5.1639 1.5581 4.6046 0
M  V30 96 Ba -5.1478 2.8450 3.8843 0
M  V30 97 Ba 4.7271 2.8594 3.6253 0
M  V30 98 Ga 5.0765 2.3030 2.3032 0
M  V30 99 Ba 5.3728 1.7219 0.9788 0
M  V30 END ATOM
M  V30 BEGIN BOND
M  V30 1 1 1 2
M  V30 2 1 1 3
M  V30 3 1 1 4
M  V30 4 1 1 5
M  V30 5 1 6 7
M  V30 6 1 6 8
M  V30 7 1 6 9
M  V30 8 1 6 10
M  V30 9 1 11 12
M  V30 10 1 11 13
M  V30 11 1 11 14
M  V30 12 1 11 15
M  V30 13 1 16 17
M  V30 14 1 16 18
M  V30 15 1 16 19
M  V30 16 1 16 20
M  V30 17 1 21 22
M  V30 18 1 21 23
M  V30 19 1 21 24
M  V30 20 1 21 25
M  V30 21 1 26 27
M  V30 22 1 26 28
M  V30 23 1 26 29
M  V30 24 1 26 30
M  V30 25 1 31 32
M  V30 26 1 31 33
M  V30 27 1 31 34
M  V30 28 1 31 35
M  V30 29 1 36 37
M  V30 30 1 36 38
M  V30 31 1 36 39
M  V30 32 1 36 40
M  V30 33 1 41 42
M  V30 34 1 41 43
M  V30 35 1 41 44
M  V30 36 1 41 45
M  V30 37 1 46 47
M  V30 38 1 47 48
M  V30 39 1 49 50
M  V30 40 1 50 51
M  V30 41 1 52 53
M  V30 42 1 53 54
M  V30 43 1 55 56
M  V30 44 1 56 57
M  V30 45 1 58 59
M  V30 46 1 59 60
M  V30 47 1 61 62
M  V30 48 1 62 63
M  V30 49 1 64 65
M  V30 50 1 65 66
M  V30 51 1 67 68
M  V30 52 1 68 69
M  V30 53 1 70 71
M  V30 54 1 71 72
M  V30 55 1 73 74
M  V30 56 1 74 75
M  V30 57 1 76 77
M  V30 58 1 77 78
M  V30 59 1 79 80
M  V30 60 1 80 81
M  V30 61 1 82 83
M  V30 62 1 83 84
M  V30 63 1 85 86
M  V30 64 1 86 87
M  V30 65 1 88 89
M  V30 66 1 89 90
M  V30 67 1 91 92
M  V30 68 1 92 93
M  V30 69 1 94 95
M  V30 70 1 95 96
M  V30 71 1 97 98
M  V30 72 1 98 99
M  V30 73 1 2 76
M  V30 74 1 3 70
M  V30 75 1 4 61
M  V30 76 1 5 64
M  V30 77 1 7 73
M  V30 78 1 8 55
M  V30 79 1 9 91
M  V30 80 1 10 52
M  V30 81 1 12 58
M  V30 82 1 13 97
M  V30 83 1 14 88
M  V30 84 1 15 49
M  V30 85 1 17 90
M  V30 86 1 18 82
M  V30 87 1 19 46
M  V30 88 1 20 85
M  V30 89 1 22 75
M  V30 90 1 23 99
M  V30 91 1 24 48
M  V30 92 1 25 79
M  V30 93 1 27 84
M  V30 94 1 28 94
M  V30 95 1 29 63
M  V30 96 1 30 87
M  V30 97 1 32 78
M  V30 98 1 33 96
M  V30 99 1 34 51
M  V30 100 1 35 60
M  V30 101 1 37 81
M  V30 102 1 38 67
M  V30 103 1 39 93
M  V30 104 1 40 66
M  V30 105 1 42 57
M  V30 106 1 43 72
M  V30 107 1 44 69
M  V30 108 1 45 54
M  V30 END BOND
M  V30 END CTAB
M  END

$$$$
