
     RDKit          3D

  0  0  0  0  0  0  0  0  0  0999 V3000
M  V30 BEGIN CTAB
M  V30 COUNTS 99 108 0 0 0
M  V30 BEGIN ATOM
M  V30 1 Pd 3.5864 1.7586 -2.8576 0
M  V30 2 Pb 4.1733 1.9721 -2.0765 0
M  V30 3 Pb 3.5322 2.7236 -3.1228 0
M  V30 4 Pb 3.5976 0.8034 -2.5667 0
M  V30 5 Pb 3.0184 1.5246 -3.6443 0
M  V30 6 Pd 0.3275 -5.3737 -2.0000 0
M  V30 7 Pb -0.4461 -4.7411 -1.8275 0
M  V30 8 Pb -0.3168 -6.1183 -2.1511 0
M  V30 9 Pb 1.0017 -4.6494 -1.8606 0
M  V30 10 Pb 1.0608 -6.0412 -1.8982 0
M  V30 11 Pd -2.4364 -4.6347 2.4975 0
M  V30 12 Pb -2.0927 -3.7903 2.9102 0
M  V30 13 Pb -2.8577 -5.4613 2.1364 0
M  V30 14 Pb -2.0495 -5.1701 3.2448 0
M  V30 15 Pb -2.5781 -4.1821 1.6022 0
M  V30 16 Pd 4.0437 -0.1458 2.2910 0
M  V30 17 Pb 4.3410 -0.9513 1.7756 0
M  V30 18 Pb 3.7233 0.6472 2.8051 0
M  V30 19 Pb 3.5732 -0.7429 2.9399 0
M  V30 20 Pb 4.5211 0.4747 1.6648 0
M  V30 21 Pd -3.4183 0.6091 1.7602 0
M  V30 22 Pb -3.4552 -0.2271 1.2315 0
M  V30 23 Pb -3.4508 1.3963 2.3818 0
M  V30 24 Pb -2.9298 0.0981 2.4674 0
M  V30 25 Pb -3.8307 1.1222 0.9715 0
M  V30 26 Pd 2.4606 -5.3059 2.3455 0
M  V30 27 Pb 2.4005 -4.5620 3.0086 0
M  V30 28 Pb 3.1430 -4.7826 1.8298 0
M  V30 29 Pb 1.7729 -5.7969 2.8923 0
M  V30 30 Pb 2.5408 -6.0303 1.6536 0
M  V30 31 Pd -0.1607 6.0778 -2.8417 0
M  V30 32 Pb 0.1795 6.3638 -1.9277 0
M  V30 33 Pb -0.5867 5.7579 -3.6847 0
M  V30 34 Pb -1.0545 6.4455 -2.6176 0
M  V30 35 Pb 0.7591 5.7731 -3.1108 0
M  V30 36 Pd -3.2632 1.6677 -4.1149 0
M  V30 37 Pb -3.0609 2.6160 -4.3700 0
M  V30 38 Pb -3.7572 1.8977 -3.2468 0
M  V30 39 Pb -2.6288 1.4142 -4.8374 0
M  V30 40 Pb -3.4347 0.7054 -3.9559 0
M  V30 41 Pd -1.1810 5.4995 2.8557 0
M  V30 42 Pb -0.3824 5.0306 3.2287 0
M  V30 43 Pb -1.9787 5.9759 2.5063 0
M  V30 44 Pb -0.5874 5.9875 2.1909 0
M  V30 45 Pb -1.7969 4.9358 3.3994 0
M  V30 46 Ag 3.4646 1.2387 3.1827 0
M  V30 47 Fe 1.8523 2.9702 3.3630 0
M  V30 48 Ag 0.2215 4.6877 3.5076 0
M  V30 49 Ag 2.5671 1.3610 -4.2178 0
M  V30 50 Fe 0.3122 1.2413 -4.9360 0
M  V30 51 Ag -2.0352 1.2531 -5.2556 0
M  V30 52 Ag -0.8460 -6.6329 -2.0988 0
M  V30 53 Fe -2.3552 -6.8715 -0.3150 0
M  V30 54 Ag -3.0997 -6.0492 1.7560 0
M  V30 55 Ag -1.6947 6.7028 -2.3537 0
M  V30 56 Fe -2.6002 6.7608 -0.1859 0
M  V30 57 Ag -2.5098 6.3099 2.1181 0
M  V30 58 Ag 3.5984 0.0989 -2.3132 0
M  V30 59 Fe 2.5429 -2.0123 -2.0598 0
M  V30 60 Ag 1.5509 -4.1487 -1.7643 0
M  V30 61 Ag -3.5111 -0.7947 0.7650 0
M  V30 62 Fe -3.5801 -0.9247 -1.5785 0
M  V30 63 Ag -3.5252 0.0097 -3.7316 0
M  V30 64 Ba 0.4220 6.5967 -1.2389 0
M  V30 65 Ga 0.1021 6.4292 0.2124 0
M  V30 66 Ba -0.1273 6.3366 1.6873 0
M  V30 67 Ba 4.5449 -1.5697 1.4002 0
M  V30 68 Ga 4.1021 -2.9796 1.4212 0
M  V30 69 Ba 3.6563 -4.3885 1.4454 0
M  V30 70 Ba 3.4787 3.4433 -3.3353 0
M  V30 71 Ga 2.4426 4.5000 -3.3076 0
M  V30 72 Ba 1.4669 5.6129 -3.3212 0
M  V30 73 Ba -1.8796 -3.1603 3.2590 0
M  V30 74 Ga -2.1965 -1.7263 3.1122 0
M  V30 75 Ba -2.5190 -0.2946 2.9571 0
M  V30 76 Ba 3.2232 -1.1808 3.4373 0
M  V30 77 Ga 2.7884 -2.5882 3.4716 0
M  V30 78 Ba 2.3570 -3.9968 3.4971 0
M  V30 79 Ba 1.5728 -6.5322 -1.6605 0
M  V30 80 Ga 2.1503 -6.5843 -0.3008 0
M  V30 81 Ba 2.6471 -6.5224 1.0905 0
M  V30 82 Ba -1.0173 5.5398 -4.2566 0
M  V30 83 Ga -1.9280 4.3940 -4.4576 0
M  V30 84 Ba -2.8539 3.2667 -4.6896 0
M  V30 85 Ba -3.4951 1.9162 2.9263 0
M  V30 86 Ga -2.8877 3.2026 3.3204 0
M  V30 87 Ba -2.2966 4.4913 3.7319 0
M  V30 88 Ba -1.0358 -4.2987 -1.6197 0
M  V30 89 Ga -1.8209 -4.0935 -0.3617 0
M  V30 90 Ba -2.6061 -3.8882 0.8962 0
M  V30 91 Ba 4.6275 2.0932 -1.4918 0
M  V30 92 Ga 4.7422 1.5266 -0.1326 0
M  V30 93 Ba 4.8784 0.9750 1.2307 0
M  V30 94 Ba -4.1536 1.5108 0.3812 0
M  V30 95 Ga -4.0715 1.7360 -1.1064 0
M  V30 96 Ba -4.1125 2.0611 -2.5772 0
M  V30 97 Ba -1.6409 -5.6102 3.6927 0
M  V30 98 Ga -0.1924 -5.8895 3.5702 0
M  V30 99 Ba 1.2577 -6.0998 3.3568 0
M  V30 END ATOM
M  V30 BEGIN BOND
M  V30 1 1 1 2
M  V30 2 1 1 3
M  V30 3 1 1 4
M  V30 4 1 1 5
M  V30 5 1 6 7
M  V30 6 1 6 8
M  V30 7 1 6 9
M  V30 8 1 6 10
M  V30 9 1 11 12
M  V30 10 1 11 13
M  V30 11 1 11 14
M  V30 12 1 11 15
M  V30 13 1 16 17
M  V30 14 1 16 18
M  V30 15 1 16 19
M  V30 16 1 16 20
M  V30 17 1 21 22
M  V30 18 1 21 23
M  V30 19 1 21 24
M  V30 20 1 21 25
M  V30 21 1 26 27
M  V30 22 1 26 28
M  V30 23 1 26 29
M  V30 24 1 26 30
M  V30 25 1 31 32
M  V30 26 1 31 33
M  V30 27 1 31 34
M  V30 28 1 31 35
M  V30 29 1 36 37
M  V30 30 1 36 38
M  V30 31 1 36 39
M  V30 32 1 36 40
M  V30 33 1 41 42
M  V30 34 1 41 43
M  V30 35 1 41 44
M  V30 36 1 41 45
M  V30 37 1 46 47
M  V30 38 1 47 48
M  V30 39 1 49 50
M  V30 40 1 50 51
M  V30 41 1 52 53
M  V30 42 1 53 54
M  V30 43 1 55 56
M  V30 44 1 56 57
M  V30 45 1 58 59
M  V30 46 1 59 60
M  V30 47 1 61 62
M  V30 48 1 62 63
M  V30 49 1 64 65
M  V30 50 1 65 66
M  V30 51 1 67 68
M  V30 52 1 68 69
M  V30 53 1 70 71
M  V30 54 1 71 72
M  V30 55 1 73 74
M  V30 56 1 74 75
M  V30 57 1 76 77
M  V30 58 1 77 78
M  V30 59 1 79 80
M  V30 60 1 80 81
M  V30 61 1 82 83
M  V30 62 1 83 84
M  V30 63 1 85 86
M  V30 64 1 86 87
M  V30 65 1 88 89
M  V30 66 1 89 90
M  V30 67 1 91 92
M  V30 68 1 92 93
M  V30 69 1 94 95
M  V30 70 1 95 96
M  V30 71 1 97 98
M  V30 72 1 98 99
M  V30 73 1 2 91
M  V30 74 1 3 70
M  V30 75 1 4 58
M  V30 76 1 5 49
M  V30 77 1 7 88
M  V30 78 1 8 52
M  V30 79 1 9 60
M  V30 80 1 10 79
M  V30 81 1 12 73
M  V30 82 1 13 54
M  V30 83 1 14 97
M  V30 84 1 15 90
M  V30 85 1 17 67
M  V30 86 1 18 46
M  V30 87 1 19 76
M  V30 88 1 20 93
M  V30 89 1 22 61
M  V30 90 1 23 85
M  V30 91 1 24 75
M  V30 92 1 25 94
M  V30 93 1 27 78
M  V30 94 1 28 69
M  V30 95 1 29 99
M  V30 96 1 30 81
M  V30 97 1 32 64
M  V30 98 1 33 82
M  V30 99 1 34 55
M  V30 100 1 35 72
M  V30 101 1 37 84
M  V30 102 1 38 96
M  V30 103 1 39 51
M  V30 104 1 40 63
M  V30 105 1 42 48
M  V30 106 1 43 57
M  V30 107 1 44 66
M  V30 108 1 45 87
M  V30 END BOND
M  V30 END CTAB
M  END

$$$$
