
     RDKit          3D

  0  0  0  0  0  0  0  0  0  0999 V3000
M  V30 BEGIN CTAB
M  V30 COUNTS 99 108 0 0 0
M  V30 BEGIN ATOM
M  V30 1 Pd 4.1155 -1.5334 -0.7201 0
M  V30 2 Pb 4.8729 -1.2673 -0.1232 0
M  V30 3 Pb 3.7132 -2.0419 0.0453 0
M  V30 4 Pb 4.5220 -0.9854 -1.4472 0
M  V30 5 Pb 3.3465 -1.7079 -1.3376 0
M  V30 6 Pd -3.0326 -7.0548 0.7205 0
M  V30 7 Pb -3.7090 -6.3334 0.8775 0
M  V30 8 Pb -2.3611 -7.7821 0.5930 0
M  V30 9 Pb -3.4082 -7.2429 -0.1912 0
M  V30 10 Pb -2.6071 -6.8579 1.6089 0
M  V30 11 Pd -1.6859 4.2420 4.6745 0
M  V30 12 Pb -0.8689 4.8072 4.5819 0
M  V30 13 Pb -2.5018 3.6653 4.6637 0
M  V30 14 Pb -2.2585 5.0215 4.4315 0
M  V30 15 Pb -1.0714 3.4618 4.8056 0
M  V30 16 Pd -2.5961 7.0381 -1.7065 0
M  V30 17 Pb -3.0162 7.3072 -0.8427 0
M  V30 18 Pb -2.1063 6.7181 -2.5166 0
M  V30 19 Pb -3.3813 6.4461 -1.8951 0
M  V30 20 Pb -1.7699 7.5550 -1.4783 0
M  V30 21 Pd -5.9114 0.1969 -0.1587 0
M  V30 22 Pb -5.9318 -0.7146 0.2540 0
M  V30 23 Pb -5.8512 0.5971 0.7566 0
M  V30 24 Pb -5.9052 1.1026 -0.5904 0
M  V30 25 Pb -5.9265 -0.2377 -1.0577 0
M  V30 26 Pd 4.3849 5.5579 -2.4533 0
M  V30 27 Pb 3.6085 5.5328 -3.0841 0
M  V30 28 Pb 5.1295 5.5448 -1.7823 0
M  V30 29 Pb 4.7594 4.7248 -2.8525 0
M  V30 30 Pb 3.9453 6.3515 -2.0331 0
M  V30 31 Pd 5.0198 2.9404 2.1924 0
M  V30 32 Pb 5.5254 2.1050 1.9628 0
M  V30 33 Pb 5.6327 3.5050 1.6343 0
M  V30 34 Pb 4.3646 2.4182 2.7436 0
M  V30 35 Pb 4.5164 3.7572 2.4676 0
M  V30 36 Pd -2.0523 -4.9332 -4.0088 0
M  V30 37 Pb -2.8644 -4.3549 -4.0769 0
M  V30 38 Pb -1.2106 -5.4618 -3.9212 0
M  V30 39 Pb -2.6305 -5.7206 -3.7883 0
M  V30 40 Pb -1.4586 -4.1376 -4.1038 0
M  V30 41 Pd 1.7849 -6.4613 1.4594 0
M  V30 42 Pb 1.3891 -7.3518 1.2476 0
M  V30 43 Pb 2.1341 -5.5423 1.6506 0
M  V30 44 Pb 2.2158 -6.5003 0.5640 0
M  V30 45 Pb 1.1850 -6.4096 2.2572 0
M  V30 46 Ag -4.2163 -5.7994 1.0252 0
M  V30 47 Fe -5.0706 -3.5966 0.7725 0
M  V30 48 Ag -5.9601 -1.4046 0.5487 0
M  V30 49 Ag -5.8989 -0.6076 -1.7079 0
M  V30 50 Fe -4.7314 -2.2433 -2.9710 0
M  V30 51 Ag -3.4556 -3.8952 -4.1015 0
M  V30 52 Ag -3.9586 5.9749 -1.9928 0
M  V30 53 Fe -4.9413 3.8735 -1.4708 0
M  V30 54 Ag -5.9142 1.7695 -0.9405 0
M  V30 55 Ag -1.6411 6.4845 -3.0555 0
M  V30 56 Fe 0.6477 5.9713 -3.4272 0
M  V30 57 Ag 2.9810 5.5337 -3.4960 0
M  V30 58 Ag -0.5427 2.9274 4.8295 0
M  V30 59 Fe 1.6419 2.3955 4.0542 0
M  V30 60 Ag 3.8256 2.0974 3.1601 0
M  V30 61 Ag -0.2303 5.1713 4.4461 0
M  V30 62 Fe 1.9678 4.8839 3.6021 0
M  V30 63 Ag 4.0984 4.3223 2.7232 0
M  V30 64 Ag -1.1048 7.8676 -1.3246 0
M  V30 65 Fe 1.2407 7.5217 -1.4741 0
M  V30 66 Ag 3.5163 6.9025 -1.7592 0
M  V30 67 Ag -2.6575 5.5845 4.1461 0
M  V30 68 Fe -3.0931 6.6476 2.0724 0
M  V30 69 Ag -3.2745 7.4407 -0.1544 0
M  V30 70 Ag 4.8072 -0.5273 -1.9636 0
M  V30 71 Fe 4.9815 1.7382 -2.6400 0
M  V30 72 Ag 5.0041 4.0640 -3.0987 0
M  V30 73 Ag 2.8013 -1.7480 -1.8543 0
M  V30 74 Fe 0.9164 -2.6683 -2.9690 0
M  V30 75 Ag -0.9685 -3.5729 -4.0965 0
M  V30 76 Ag -0.5321 -5.7564 -3.8105 0
M  V30 77 Fe 1.0784 -6.2331 -2.1384 0
M  V30 78 Ag 2.3475 -6.5660 -0.1654 0
M  V30 79 Ag -3.1293 3.2641 4.5808 0
M  V30 80 Fe -4.4890 2.0480 3.0597 0
M  V30 81 Ag -5.7742 0.8547 1.4577 0
M  V30 82 Ba 5.4364 -1.0234 0.3084 0
M  V30 83 Ga 5.6709 0.2231 1.0666 0
M  V30 84 Ba 5.9059 1.4699 1.8241 0
M  V30 85 Ba -2.2460 -6.7198 2.2570 0
M  V30 86 Ga -0.8128 -6.5423 2.5774 0
M  V30 87 Ba 0.6439 -6.3813 2.7762 0
M  V30 88 Ba -1.8305 -8.3062 0.5373 0
M  V30 89 Ga -0.3833 -8.2164 0.7832 0
M  V30 90 Ba 1.0429 -7.9862 1.0586 0
M  V30 91 Ba -3.6575 -7.3943 -0.8862 0
M  V30 92 Ga -3.3772 -6.8514 -2.2333 0
M  V30 93 Ba -3.0748 -6.2847 -3.5657 0
M  V30 94 Ba 3.4599 -2.3657 0.6762 0
M  V30 95 Ga 2.9085 -3.6374 1.1887 0
M  V30 96 Ba 2.3519 -4.8462 1.8315 0
M  V30 97 Ba 5.6905 5.4868 -1.2838 0
M  V30 98 Ga 5.8836 4.7274 -0.0293 0
M  V30 99 Ba 6.0666 3.9638 1.2241 0
M  V30 END ATOM
M  V30 BEGIN BOND
M  V30 1 1 1 2
M  V30 2 1 1 3
M  V30 3 1 1 4
M  V30 4 1 1 5
M  V30 5 1 6 7
M  V30 6 1 6 8
M  V30 7 1 6 9
M  V30 8 1 6 10
M  V30 9 1 11 12
M  V30 10 1 11 13
M  V30 11 1 11 14
M  V30 12 1 11 15
M  V30 13 1 16 17
M  V30 14 1 16 18
M  V30 15 1 16 19
M  V30 16 1 16 20
M  V30 17 1 21 22
M  V30 18 1 21 23
M  V30 19 1 21 24
M  V30 20 1 21 25
M  V30 21 1 26 27
M  V30 22 1 26 28
M  V30 23 1 26 29
M  V30 24 1 26 30
M  V30 25 1 31 32
M  V30 26 1 31 33
M  V30 27 1 31 34
M  V30 28 1 31 35
M  V30 29 1 36 37
M  V30 30 1 36 38
M  V30 31 1 36 39
M  V30 32 1 36 40
M  V30 33 1 41 42
M  V30 34 1 41 43
M  V30 35 1 41 44
M  V30 36 1 41 45
M  V30 37 1 46 47
M  V30 38 1 47 48
M  V30 39 1 49 50
M  V30 40 1 50 51
M  V30 41 1 52 53
M  V30 42 1 53 54
M  V30 43 1 55 56
M  V30 44 1 56 57
M  V30 45 1 58 59
M  V30 46 1 59 60
M  V30 47 1 61 62
M  V30 48 1 62 63
M  V30 49 1 64 65
M  V30 50 1 65 66
M  V30 51 1 67 68
M  V30 52 1 68 69
M  V30 53 1 70 71
M  V30 54 1 71 72
M  V30 55 1 73 74
M  V30 56 1 74 75
M  V30 57 1 76 77
M  V30 58 1 77 78
M  V30 59 1 79 80
M  V30 60 1 80 81
M  V30 61 1 82 83
M  V30 62 1 83 84
M  V30 63 1 85 86
M  V30 64 1 86 87
M  V30 65 1 88 89
M  V30 66 1 89 90
M  V30 67 1 91 92
M  V30 68 1 92 93
M  V30 69 1 94 95
M  V30 70 1 95 96
M  V30 71 1 97 98
M  V30 72 1 98 99
M  V30 73 1 2 82
M  V30 74 1 3 94
M  V30 75 1 4 70
M  V30 76 1 5 73
M  V30 77 1 7 46
M  V30 78 1 8 88
M  V30 79 1 9 91
M  V30 80 1 10 85
M  V30 81 1 12 61
M  V30 82 1 13 79
M  V30 83 1 14 67
M  V30 84 1 15 58
M  V30 85 1 17 69
M  V30 86 1 18 55
M  V30 87 1 19 52
M  V30 88 1 20 64
M  V30 89 1 22 48
M  V30 90 1 23 81
M  V30 91 1 24 54
M  V30 92 1 25 49
M  V30 93 1 27 57
M  V30 94 1 28 97
M  V30 95 1 29 72
M  V30 96 1 30 66
M  V30 97 1 32 84
M  V30 98 1 33 99
M  V30 99 1 34 60
M  V30 100 1 35 63
M  V30 101 1 37 51
M  V30 102 1 38 76
M  V30 103 1 39 93
M  V30 104 1 40 75
M  V30 105 1 42 90
M  V30 106 1 43 96
M  V30 107 1 44 78
M  V30 108 1 45 87
M  V30 END BOND
M  V30 END CTAB
M  END

$$$$
