
     RDKit          3D

  0  0  0  0  0  0  0  0  0  0999 V3000
M  V30 BEGIN CTAB
M  V30 COUNTS 99 108 0 0 0
M  V30 BEGIN ATOM
M  V30 1 Pd -0.4707 -2.6605 -3.1813 0
M  V30 2 Pb -1.0374 -3.3438 -2.7204 0
M  V30 3 Pb -1.3048 -2.2891 -3.5886 0
M  V30 4 Pb 0.3468 -3.1016 -2.8069 0
M  V30 5 Pb 0.0697 -1.9311 -3.6036 0
M  V30 6 Pd 5.1963 -2.5244 -1.4278 0
M  V30 7 Pb 4.7571 -1.6312 -1.5386 0
M  V30 8 Pb 6.0481 -2.0515 -1.2209 0
M  V30 9 Pb 4.3441 -3.0233 -1.5934 0
M  V30 10 Pb 5.6384 -3.3791 -1.1606 0
M  V30 11 Pd 5.3348 0.3341 2.3305 0
M  V30 12 Pb 4.4987 0.5364 2.8377 0
M  V30 13 Pb 6.1697 0.1542 1.8169 0
M  V30 14 Pb 5.7026 -0.1671 3.1116 0
M  V30 15 Pb 4.9255 0.6915 1.4879 0
M  V30 16 Pd -0.9317 -4.1465 1.9349 0
M  V30 17 Pb -0.3898 -3.9316 2.7503 0
M  V30 18 Pb -1.6627 -3.5369 2.2492 0
M  V30 19 Pb -0.2174 -4.7780 1.6386 0
M  V30 20 Pb -1.4483 -4.3772 1.1100 0
M  V30 21 Pd -0.8596 4.5410 2.0787 0
M  V30 22 Pb -0.0152 4.5734 1.5467 0
M  V30 23 Pb -1.6882 4.4994 2.6410 0
M  V30 24 Pb -0.4233 3.8793 2.6850 0
M  V30 25 Pb -1.2657 5.1874 1.4275 0
M  V30 26 Pd 4.2827 -4.5369 2.9838 0
M  V30 27 Pb 3.6579 -5.0973 2.4439 0
M  V30 28 Pb 3.5125 -4.2407 3.5521 0
M  V30 29 Pb 4.9015 -3.9573 3.5197 0
M  V30 30 Pb 5.0180 -4.8239 2.3676 0
M  V30 31 Pd -6.6586 2.1388 -3.7635 0
M  V30 32 Pb -6.9960 1.6676 -2.9309 0
M  V30 33 Pb -6.1810 2.6533 -4.4703 0
M  V30 34 Pb -7.1192 2.9706 -3.4732 0
M  V30 35 Pb -6.1631 1.3208 -4.0508 0
M  V30 36 Pd -0.0875 4.7339 -3.0322 0
M  V30 37 Pb -0.7934 4.7529 -3.7395 0
M  V30 38 Pb -0.6092 5.3824 -2.4717 0
M  V30 39 Pb 0.3823 3.9991 -3.5225 0
M  V30 40 Pb 0.6066 4.7063 -2.3174 0
M  V30 41 Pd -5.8151 2.1766 1.9590 0
M  V30 42 Pb -5.3968 1.3142 2.2530 0
M  V30 43 Pb -6.2668 3.0255 1.7072 0
M  V30 44 Pb -6.3183 1.7053 1.2107 0
M  V30 45 Pb -5.2958 2.6835 2.6470 0
M  V30 46 Ag -1.9496 -2.0701 -3.9028 0
M  V30 47 Fe -3.8491 -0.6557 -4.0713 0
M  V30 48 Ag -5.7654 0.7301 -4.2823 0
M  V30 49 Ag -2.2170 -3.1020 2.5130 0
M  V30 50 Fe -3.6328 -1.1929 2.4500 0
M  V30 51 Ag -5.1133 0.6665 2.5106 0
M  V30 52 Ag 3.8687 0.7132 3.2013 0
M  V30 53 Fe 1.8824 2.0108 3.2231 0
M  V30 54 Ag -0.0557 3.3735 3.0952 0
M  V30 55 Ag 0.4373 -1.3452 -3.8969 0
M  V30 56 Fe 0.6413 1.0219 -3.9391 0
M  V30 57 Ag 0.6929 3.3955 -3.8429 0
M  V30 58 Ag -5.7138 3.0512 -4.8943 0
M  V30 59 Fe -3.5315 3.9661 -4.7359 0
M  V30 60 Ag -1.3419 4.7379 -4.2497 0
M  V30 61 Ag -7.3903 3.5549 -3.1099 0
M  V30 62 Fe -7.2603 4.0553 -0.8143 0
M  V30 63 Ag -6.6202 3.6016 1.4048 0
M  V30 64 Ba -7.2176 1.3182 -2.2874 0
M  V30 65 Ga -6.9317 1.3770 -0.8207 0
M  V30 66 Ba -6.7186 1.3527 0.6593 0
M  V30 67 Ba 0.0319 -3.7838 3.3557 0
M  V30 68 Ga 1.4731 -3.8960 3.6647 0
M  V30 69 Ba 2.9178 -4.0157 3.9535 0
M  V30 70 Ba 0.3146 -5.2602 1.4276 0
M  V30 71 Ga 1.7513 -5.3943 1.7202 0
M  V30 72 Ba 3.1866 -5.5043 2.0296 0
M  V30 73 Ba 5.9696 -3.9801 -0.8602 0
M  V30 74 Ga 5.7867 -4.5589 0.4848 0
M  V30 75 Ba 5.5160 -5.0470 1.8509 0
M  V30 76 Ba 6.6622 -1.6922 -0.9982 0
M  V30 77 Ga 6.8076 -0.8238 0.1757 0
M  V30 78 Ba 6.7589 0.0093 1.3828 0
M  V30 79 Ba -2.2790 4.4458 3.1038 0
M  V30 80 Ga -3.5924 3.7707 3.1092 0
M  V30 81 Ba -4.9100 3.1042 3.1337 0
M  V30 82 Ba 4.4765 -0.9338 -1.5183 0
M  V30 83 Ga 4.5094 0.0247 -0.3920 0
M  V30 84 Ba 4.6217 0.8643 0.8209 0
M  V30 85 Ba -1.4845 -3.8251 -2.3580 0
M  V30 86 Ga -1.6519 -4.2057 -0.9423 0
M  V30 87 Ba -1.8033 -4.5728 0.4787 0
M  V30 88 Ba -1.5189 5.6651 0.9022 0
M  V30 89 Ga -1.2832 5.7675 -0.5561 0
M  V30 90 Ba -1.0130 5.8216 -2.0110 0
M  V30 91 Ba 0.9165 -3.5087 -2.5342 0
M  V30 92 Ga 2.3312 -3.4007 -2.1256 0
M  V30 93 Ba 3.7380 -3.4581 -1.6809 0
M  V30 94 Ba 0.6167 4.5927 1.1460 0
M  V30 95 Ga 0.8939 4.6410 -0.2982 0
M  V30 96 Ba 1.0969 4.6894 -1.7545 0
M  V30 97 Ba 5.9504 -0.6269 3.6481 0
M  V30 98 Ga 5.6755 -2.0661 3.8292 0
M  V30 99 Ba 5.3417 -3.5012 3.9263 0
M  V30 END ATOM
M  V30 BEGIN BOND
M  V30 1 1 1 2
M  V30 2 1 1 3
M  V30 3 1 1 4
M  V30 4 1 1 5
M  V30 5 1 6 7
M  V30 6 1 6 8
M  V30 7 1 6 9
M  V30 8 1 6 10
M  V30 9 1 11 12
M  V30 10 1 11 13
M  V30 11 1 11 14
M  V30 12 1 11 15
M  V30 13 1 16 17
M  V30 14 1 16 18
M  V30 15 1 16 19
M  V30 16 1 16 20
M  V30 17 1 21 22
M  V30 18 1 21 23
M  V30 19 1 21 24
M  V30 20 1 21 25
M  V30 21 1 26 27
M  V30 22 1 26 28
M  V30 23 1 26 29
M  V30 24 1 26 30
M  V30 25 1 31 32
M  V30 26 1 31 33
M  V30 27 1 31 34
M  V30 28 1 31 35
M  V30 29 1 36 37
M  V30 30 1 36 38
M  V30 31 1 36 39
M  V30 32 1 36 40
M  V30 33 1 41 42
M  V30 34 1 41 43
M  V30 35 1 41 44
M  V30 36 1 41 45
M  V30 37 1 46 47
M  V30 38 1 47 48
M  V30 39 1 49 50
M  V30 40 1 50 51
M  V30 41 1 52 53
M  V30 42 1 53 54
M  V30 43 1 55 56
M  V30 44 1 56 57
M  V30 45 1 58 59
M  V30 46 1 59 60
M  V30 47 1 61 62
M  V30 48 1 62 63
M  V30 49 1 64 65
M  V30 50 1 65 66
M  V30 51 1 67 68
M  V30 52 1 68 69
M  V30 53 1 70 71
M  V30 54 1 71 72
M  V30 55 1 73 74
M  V30 56 1 74 75
M  V30 57 1 76 77
M  V30 58 1 77 78
M  V30 59 1 79 80
M  V30 60 1 80 81
M  V30 61 1 82 83
M  V30 62 1 83 84
M  V30 63 1 85 86
M  V30 64 1 86 87
M  V30 65 1 88 89
M  V30 66 1 89 90
M  V30 67 1 91 92
M  V30 68 1 92 93
M  V30 69 1 94 95
M  V30 70 1 95 96
M  V30 71 1 97 98
M  V30 72 1 98 99
M  V30 73 1 2 85
M  V30 74 1 3 46
M  V30 75 1 4 91
M  V30 76 1 5 55
M  V30 77 1 7 82
M  V30 78 1 8 76
M  V30 79 1 9 93
M  V30 80 1 10 73
M  V30 81 1 12 52
M  V30 82 1 13 78
M  V30 83 1 14 97
M  V30 84 1 15 84
M  V30 85 1 17 67
M  V30 86 1 18 49
M  V30 87 1 19 70
M  V30 88 1 20 87
M  V30 89 1 22 94
M  V30 90 1 23 79
M  V30 91 1 24 54
M  V30 92 1 25 88
M  V30 93 1 27 72
M  V30 94 1 28 69
M  V30 95 1 29 99
M  V30 96 1 30 75
M  V30 97 1 32 64
M  V30 98 1 33 58
M  V30 99 1 34 61
M  V30 100 1 35 48
M  V30 101 1 37 60
M  V30 102 1 38 90
M  V30 103 1 39 57
M  V30 104 1 40 96
M  V30 105 1 42 51
M  V30 106 1 43 63
M  V30 107 1 44 66
M  V30 108 1 45 81
M  V30 END BOND
M  V30 END CTAB
M  END

$$$$
