
     RDKit          3D

  0  0  0  0  0  0  0  0  0  0999 V3000
M  V30 BEGIN CTAB
M  V30 COUNTS 99 108 0 0 0
M  V30 BEGIN ATOM
M  V30 1 Pd 3.8764 1.7320 3.1396 0
M  V30 2 Pb 4.4102 2.1089 2.3817 0
M  V30 3 Pb 3.3771 1.3713 3.9302 0
M  V30 4 Pb 4.3752 0.8634 3.0903 0
M  V30 5 Pb 3.3956 2.6105 3.1915 0
M  V30 6 Pd -3.8588 -2.4810 2.7539 0
M  V30 7 Pb -3.0773 -2.4991 2.1288 0
M  V30 8 Pb -4.5791 -2.3740 3.4372 0
M  V30 9 Pb -4.2297 -1.7209 2.2267 0
M  V30 10 Pb -3.4312 -3.1584 3.3532 0
M  V30 11 Pd -1.0014 2.0446 -6.1422 0
M  V30 12 Pb -0.8351 3.0178 -6.0362 0
M  V30 13 Pb -1.9327 2.1733 -5.8020 0
M  V30 14 Pb -1.2056 1.0728 -6.2700 0
M  V30 15 Pb -0.0180 1.9141 -6.3803 0
M  V30 16 Pd -1.9566 -4.4857 -2.6725 0
M  V30 17 Pb -2.1431 -4.1620 -3.5980 0
M  V30 18 Pb -1.6485 -4.6738 -1.7350 0
M  V30 19 Pb -2.8241 -4.0984 -2.3639 0
M  V30 20 Pb -1.0708 -4.8153 -2.9781 0
M  V30 21 Pd -2.6605 0.3616 -1.6577 0
M  V30 22 Pb -2.1425 -0.2476 -1.0539 0
M  V30 23 Pb -3.1688 0.9205 -2.3149 0
M  V30 24 Pb -3.3814 -0.3303 -1.6624 0
M  V30 25 Pb -1.9283 1.0480 -1.6507 0
M  V30 26 Pd 4.4006 -3.1448 0.1501 0
M  V30 27 Pb 3.6056 -3.5362 0.6223 0
M  V30 28 Pb 5.0863 -2.7081 -0.4282 0
M  V30 29 Pb 4.7206 -2.6524 0.9631 0
M  V30 30 Pb 4.1040 -3.6523 -0.6519 0
M  V30 31 Pd 4.5636 2.8048 -4.2995 0
M  V30 32 Pb 5.0393 3.1084 -3.4768 0
M  V30 33 Pb 5.0083 1.9223 -4.1496 0
M  V30 34 Pb 3.9825 2.4582 -5.0625 0
M  V30 35 Pb 4.1558 3.7033 -4.4110 0
M  V30 36 Pd -1.0272 3.9640 1.8407 0
M  V30 37 Pb -0.6700 3.8100 0.9201 0
M  V30 38 Pb -1.3893 4.0327 2.7698 0
M  V30 39 Pb -1.8913 3.5654 1.5406 0
M  V30 40 Pb -0.1452 4.3060 2.1669 0
M  V30 41 Pd -2.4269 -0.9183 6.8829 0
M  V30 42 Pb -3.4077 -1.0739 6.7663 0
M  V30 43 Pb -1.4410 -0.7554 6.9271 0
M  V30 44 Pb -2.5626 0.0704 6.9119 0
M  V30 45 Pb -2.2839 -1.8946 6.7194 0
M  V30 46 Ag 4.8059 2.4264 1.8283 0
M  V30 47 Fe 5.1297 2.8811 -0.4795 0
M  V30 48 Ag 5.3470 3.2624 -2.8128 0
M  V30 49 Ag -1.3047 -4.7525 -1.0669 0
M  V30 50 Fe 0.7698 -4.3486 0.0320 0
M  V30 51 Ag 2.9463 -3.8271 0.8477 0
M  V30 52 Ag -0.5896 3.7066 -5.9274 0
M  V30 53 Fe 1.5047 4.5203 -5.2289 0
M  V30 54 Ag 3.7392 4.3031 -4.5250 0
M  V30 55 Ag -0.3690 -4.9984 -3.1373 0
M  V30 56 Fe 1.8216 -4.6244 -2.3268 0
M  V30 57 Ag 3.8329 -4.0315 -1.2315 0
M  V30 58 Ag -1.4137 0.3559 -6.3559 0
M  V30 59 Fe -1.8340 -1.7729 -5.3900 0
M  V30 60 Ag -2.1992 -3.8343 -4.2685 0
M  V30 61 Ag -4.4209 -1.0903 1.8762 0
M  V30 62 Fe -3.6108 1.1066 1.5056 0
M  V30 63 Ag -2.5108 3.2000 1.3371 0
M  V30 64 Ag -1.6591 4.0064 3.4683 0
M  V30 65 Fe -2.1913 2.5299 5.2487 0
M  V30 66 Ag -2.6172 0.8121 6.8298 0
M  V30 67 Ag 3.0446 1.0809 4.5394 0
M  V30 68 Fe 1.1653 0.2406 5.7270 0
M  V30 69 Ag -0.7068 -0.6007 6.9251 0
M  V30 70 Ag 5.5004 -2.3720 -0.9530 0
M  V30 71 Fe 5.5302 -0.5579 -2.4841 0
M  V30 72 Ag 5.3868 1.3080 -3.9451 0
M  V30 73 Ba -2.4734 -2.4472 1.6849 0
M  V30 74 Ga -2.1216 -1.6045 0.5230 0
M  V30 75 Ba -1.7777 -0.7576 -0.6381 0
M  V30 76 Ba -1.3855 1.5708 -1.6604 0
M  V30 77 Ga -0.8995 2.6088 -0.7279 0
M  V30 78 Ba -0.4380 3.6361 0.2286 0
M  V30 79 Ba -3.4574 -3.7545 -2.1604 0
M  V30 80 Ga -3.7263 -2.3307 -1.8933 0
M  V30 81 Ba -3.8833 -0.8864 -1.6478 0
M  V30 82 Ba 0.7224 1.8131 -6.5664 0
M  V30 83 Ga 2.1092 2.0341 -6.0407 0
M  V30 84 Ba 3.5447 2.1961 -5.6388 0
M  V30 85 Ba -3.1056 -3.5927 3.8716 0
M  V30 86 Ga -2.6293 -3.1907 5.2092 0
M  V30 87 Ba -2.2146 -2.6088 6.5003 0
M  V30 88 Ba -5.0449 -2.2500 4.0096 0
M  V30 89 Ga -4.6800 -1.7396 5.3424 0
M  V30 90 Ba -4.1243 -1.2253 6.6063 0
M  V30 91 Ba 4.7564 0.2144 3.0938 0
M  V30 92 Ga 4.8426 -1.0306 2.3010 0
M  V30 93 Ba 4.9979 -2.3078 1.5724 0
M  V30 94 Ba 3.0752 3.2916 3.2068 0
M  V30 95 Ga 1.7859 3.9018 2.8213 0
M  V30 96 Ba 0.5091 4.5445 2.4475 0
M  V30 97 Ba -2.6062 2.2568 -5.4830 0
M  V30 98 Ga -3.1086 1.8074 -4.1699 0
M  V30 99 Ba -3.5271 1.3197 -2.8411 0
M  V30 END ATOM
M  V30 BEGIN BOND
M  V30 1 1 1 2
M  V30 2 1 1 3
M  V30 3 1 1 4
M  V30 4 1 1 5
M  V30 5 1 6 7
M  V30 6 1 6 8
M  V30 7 1 6 9
M  V30 8 1 6 10
M  V30 9 1 11 12
M  V30 10 1 11 13
M  V30 11 1 11 14
M  V30 12 1 11 15
M  V30 13 1 16 17
M  V30 14 1 16 18
M  V30 15 1 16 19
M  V30 16 1 16 20
M  V30 17 1 21 22
M  V30 18 1 21 23
M  V30 19 1 21 24
M  V30 20 1 21 25
M  V30 21 1 26 27
M  V30 22 1 26 28
M  V30 23 1 26 29
M  V30 24 1 26 30
M  V30 25 1 31 32
M  V30 26 1 31 33
M  V30 27 1 31 34
M  V30 28 1 31 35
M  V30 29 1 36 37
M  V30 30 1 36 38
M  V30 31 1 36 39
M  V30 32 1 36 40
M  V30 33 1 41 42
M  V30 34 1 41 43
M  V30 35 1 41 44
M  V30 36 1 41 45
M  V30 37 1 46 47
M  V30 38 1 47 48
M  V30 39 1 49 50
M  V30 40 1 50 51
M  V30 41 1 52 53
M  V30 42 1 53 54
M  V30 43 1 55 56
M  V30 44 1 56 57
M  V30 45 1 58 59
M  V30 46 1 59 60
M  V30 47 1 61 62
M  V30 48 1 62 63
M  V30 49 1 64 65
M  V30 50 1 65 66
M  V30 51 1 67 68
M  V30 52 1 68 69
M  V30 53 1 70 71
M  V30 54 1 71 72
M  V30 55 1 73 74
M  V30 56 1 74 75
M  V30 57 1 76 77
M  V30 58 1 77 78
M  V30 59 1 79 80
M  V30 60 1 80 81
M  V30 61 1 82 83
M  V30 62 1 83 84
M  V30 63 1 85 86
M  V30 64 1 86 87
M  V30 65 1 88 89
M  V30 66 1 89 90
M  V30 67 1 91 92
M  V30 68 1 92 93
M  V30 69 1 94 95
M  V30 70 1 95 96
M  V30 71 1 97 98
M  V30 72 1 98 99
M  V30 73 1 2 46
M  V30 74 1 3 67
M  V30 75 1 4 91
M  V30 76 1 5 94
M  V30 77 1 7 73
M  V30 78 1 8 88
M  V30 79 1 9 61
M  V30 80 1 10 85
M  V30 81 1 12 52
M  V30 82 1 13 97
M  V30 83 1 14 58
M  V30 84 1 15 82
M  V30 85 1 17 60
M  V30 86 1 18 49
M  V30 87 1 19 79
M  V30 88 1 20 55
M  V30 89 1 22 75
M  V30 90 1 23 99
M  V30 91 1 24 81
M  V30 92 1 25 76
M  V30 93 1 27 51
M  V30 94 1 28 70
M  V30 95 1 29 93
M  V30 96 1 30 57
M  V30 97 1 32 48
M  V30 98 1 33 72
M  V30 99 1 34 84
M  V30 100 1 35 54
M  V30 101 1 37 78
M  V30 102 1 38 64
M  V30 103 1 39 63
M  V30 104 1 40 96
M  V30 105 1 42 90
M  V30 106 1 43 69
M  V30 107 1 44 66
M  V30 108 1 45 87
M  V30 END BOND
M  V30 END CTAB
M  END

$$$$
