
     RDKit          3D

  0  0  0  0  0  0  0  0  0  0999 V3000
M  V30 BEGIN CTAB
M  V30 COUNTS 99 108 0 0 0
M  V30 BEGIN ATOM
M  V30 1 Pd 4.0767 -3.2377 -2.0212 0
M  V30 2 Pb 3.5292 -2.9913 -1.2237 0
M  V30 3 Pb 4.6191 -2.4077 -1.9289 0
M  V30 4 Pb 4.5241 -3.4067 -2.9147 0
M  V30 5 Pb 3.5371 -4.0768 -2.0851 0
M  V30 6 Pd 3.8802 -0.9457 -7.0981 0
M  V30 7 Pb 3.2233 -1.5841 -7.4955 0
M  V30 8 Pb 4.3937 -1.7099 -6.6764 0
M  V30 9 Pb 4.5017 -0.3021 -6.6607 0
M  V30 10 Pb 3.2720 -0.1963 -7.3538 0
M  V30 11 Pd 2.2862 1.2338 4.4565 0
M  V30 12 Pb 2.2948 2.2090 4.6760 0
M  V30 13 Pb 2.2154 0.2746 4.1832 0
M  V30 14 Pb 1.8299 1.0261 5.3240 0
M  V30 15 Pb 2.7615 1.4410 3.6011 0
M  V30 16 Pd -2.8558 0.3318 6.7009 0
M  V30 17 Pb -2.7549 -0.5638 6.2611 0
M  V30 18 Pb -2.9781 1.2789 6.9961 0
M  V30 19 Pb -3.8297 0.2927 6.4914 0
M  V30 20 Pb -1.8821 0.3635 6.9357 0
M  V30 21 Pd 1.0398 1.1780 -0.8182 0
M  V30 22 Pb 0.8606 2.1456 -0.9981 0
M  V30 23 Pb 0.2051 0.9596 -1.3298 0
M  V30 24 Pb 1.8608 1.4222 -0.3039 0
M  V30 25 Pb 1.1890 0.2288 -0.5304 0
M  V30 26 Pd -0.8267 -1.1179 -5.6396 0
M  V30 27 Pb -0.4560 -1.6891 -6.3709 0
M  V30 28 Pb -1.2891 -1.9098 -5.2429 0
M  V30 29 Pb -0.3724 -0.3311 -6.0648 0
M  V30 30 Pb -1.1662 -0.5704 -4.8730 0
M  V30 31 Pd -2.2927 6.3542 2.9399 0
M  V30 32 Pb -1.8613 6.3757 2.0384 0
M  V30 33 Pb -3.1415 6.0392 2.5151 0
M  V30 34 Pb -1.4044 6.4971 3.3710 0
M  V30 35 Pb -2.6684 6.2001 3.8535 0
M  V30 36 Pd -0.7156 -3.5103 -0.8143 0
M  V30 37 Pb -1.2057 -2.6484 -0.6773 0
M  V30 38 Pb -0.1882 -3.3676 0.0251 0
M  V30 39 Pb -0.1668 -4.3183 -1.0246 0
M  V30 40 Pb -1.2331 -3.6637 -1.6550 0
M  V30 41 Pd -4.5813 -0.3191 2.2138 0
M  V30 42 Pb -5.2016 -0.2440 2.9890 0
M  V30 43 Pb -4.1268 -1.0790 2.6851 0
M  V30 44 Pb -4.9616 0.5288 1.8425 0
M  V30 45 Pb -3.9463 -0.3652 1.4427 0
M  V30 46 Ag 5.0044 -1.7792 -2.0109 0
M  V30 47 Fe 5.3086 -0.4278 -3.9149 0
M  V30 48 Ag 4.9226 0.0753 -6.1821 0
M  V30 49 Ag -3.7243 5.6894 2.1976 0
M  V30 50 Fe -4.5929 3.5092 1.8294 0
M  V30 51 Ag -5.1846 1.2162 1.6395 0
M  V30 52 Ag 2.2463 2.9502 4.7749 0
M  V30 53 Fe 0.8734 4.8324 4.3238 0
M  V30 54 Ag -0.7384 6.4615 3.7086 0
M  V30 55 Ag 0.6843 2.8722 -1.0607 0
M  V30 56 Fe -0.3867 4.6784 0.0490 0
M  V30 57 Ag -1.5121 6.2913 1.3804 0
M  V30 58 Ag -3.0979 2.0115 7.1010 0
M  V30 59 Fe -3.0422 4.0911 5.9558 0
M  V30 60 Ag -2.8764 5.9930 4.5435 0
M  V30 61 Ag 2.1275 -0.4304 3.9431 0
M  V30 62 Fe 1.1818 -1.8718 2.3082 0
M  V30 63 Ag 0.2171 -3.2748 0.6511 0
M  V30 64 Ba 1.5143 0.8647 5.9871 0
M  V30 65 Ga 0.1605 0.6307 6.5307 0
M  V30 66 Ba -1.1603 0.3852 7.1458 0
M  V30 67 Ba -1.5351 -1.9745 -0.6439 0
M  V30 68 Ga -2.5195 -1.2136 0.1492 0
M  V30 69 Ba -3.4814 -0.3451 0.8546 0
M  V30 70 Ba 2.7510 0.3329 -7.4515 0
M  V30 71 Ga 1.3566 0.3343 -6.9652 0
M  V30 72 Ba -0.0155 0.2224 -6.4300 0
M  V30 73 Ba -4.5506 0.2491 6.3018 0
M  V30 74 Ga -5.1610 0.0407 4.9830 0
M  V30 75 Ba -5.6166 -0.1718 3.6038 0
M  V30 76 Ba 4.8471 -3.5058 -3.5999 0
M  V30 77 Ga 4.7835 -2.8748 -4.9518 0
M  V30 78 Ba 4.7568 -2.2799 -6.3212 0
M  V30 79 Ba -0.4399 0.8678 -1.7079 0
M  V30 80 Ga -0.9056 0.3197 -2.9993 0
M  V30 81 Ba -1.4384 -0.2089 -4.2729 0
M  V30 82 Ba 3.1010 -4.6866 -2.0724 0
M  V30 83 Ga 1.6935 -4.8456 -1.6639 0
M  V30 84 Ba 0.2837 -4.8789 -1.2343 0
M  V30 85 Ba 2.6843 -2.0304 -7.7612 0
M  V30 86 Ga 1.2648 -2.1149 -7.3774 0
M  V30 87 Ba -0.1299 -2.1024 -6.9038 0
M  V30 88 Ba -1.6458 -2.4953 -4.9407 0
M  V30 89 Ga -1.6323 -3.1444 -3.6176 0
M  V30 90 Ba -1.6104 -3.7855 -2.2907 0
M  V30 91 Ba 3.1277 1.6051 2.9671 0
M  V30 92 Ga 2.8008 1.6014 1.5292 0
M  V30 93 Ba 2.4724 1.5972 0.0916 0
M  V30 94 Ba 3.0507 -2.7995 -0.6804 0
M  V30 95 Ga 2.1927 -1.6174 -0.4612 0
M  V30 96 Ba 1.3236 -0.4468 -0.2251 0
M  V30 97 Ba -2.7248 -1.1958 5.8520 0
M  V30 98 Ga -3.2284 -1.4563 4.4839 0
M  V30 99 Ba -3.7747 -1.5891 3.1138 0
M  V30 END ATOM
M  V30 BEGIN BOND
M  V30 1 1 1 2
M  V30 2 1 1 3
M  V30 3 1 1 4
M  V30 4 1 1 5
M  V30 5 1 6 7
M  V30 6 1 6 8
M  V30 7 1 6 9
M  V30 8 1 6 10
M  V30 9 1 11 12
M  V30 10 1 11 13
M  V30 11 1 11 14
M  V30 12 1 11 15
M  V30 13 1 16 17
M  V30 14 1 16 18
M  V30 15 1 16 19
M  V30 16 1 16 20
M  V30 17 1 21 22
M  V30 18 1 21 23
M  V30 19 1 21 24
M  V30 20 1 21 25
M  V30 21 1 26 27
M  V30 22 1 26 28
M  V30 23 1 26 29
M  V30 24 1 26 30
M  V30 25 1 31 32
M  V30 26 1 31 33
M  V30 27 1 31 34
M  V30 28 1 31 35
M  V30 29 1 36 37
M  V30 30 1 36 38
M  V30 31 1 36 39
M  V30 32 1 36 40
M  V30 33 1 41 42
M  V30 34 1 41 43
M  V30 35 1 41 44
M  V30 36 1 41 45
M  V30 37 1 46 47
M  V30 38 1 47 48
M  V30 39 1 49 50
M  V30 40 1 50 51
M  V30 41 1 52 53
M  V30 42 1 53 54
M  V30 43 1 55 56
M  V30 44 1 56 57
M  V30 45 1 58 59
M  V30 46 1 59 60
M  V30 47 1 61 62
M  V30 48 1 62 63
M  V30 49 1 64 65
M  V30 50 1 65 66
M  V30 51 1 67 68
M  V30 52 1 68 69
M  V30 53 1 70 71
M  V30 54 1 71 72
M  V30 55 1 73 74
M  V30 56 1 74 75
M  V30 57 1 76 77
M  V30 58 1 77 78
M  V30 59 1 79 80
M  V30 60 1 80 81
M  V30 61 1 82 83
M  V30 62 1 83 84
M  V30 63 1 85 86
M  V30 64 1 86 87
M  V30 65 1 88 89
M  V30 66 1 89 90
M  V30 67 1 91 92
M  V30 68 1 92 93
M  V30 69 1 94 95
M  V30 70 1 95 96
M  V30 71 1 97 98
M  V30 72 1 98 99
M  V30 73 1 2 94
M  V30 74 1 3 46
M  V30 75 1 4 76
M  V30 76 1 5 82
M  V30 77 1 7 85
M  V30 78 1 8 78
M  V30 79 1 9 48
M  V30 80 1 10 70
M  V30 81 1 12 52
M  V30 82 1 13 61
M  V30 83 1 14 64
M  V30 84 1 15 91
M  V30 85 1 17 97
M  V30 86 1 18 58
M  V30 87 1 19 73
M  V30 88 1 20 66
M  V30 89 1 22 55
M  V30 90 1 23 79
M  V30 91 1 24 93
M  V30 92 1 25 96
M  V30 93 1 27 87
M  V30 94 1 28 88
M  V30 95 1 29 72
M  V30 96 1 30 81
M  V30 97 1 32 57
M  V30 98 1 33 49
M  V30 99 1 34 54
M  V30 100 1 35 60
M  V30 101 1 37 67
M  V30 102 1 38 63
M  V30 103 1 39 84
M  V30 104 1 40 90
M  V30 105 1 42 75
M  V30 106 1 43 99
M  V30 107 1 44 51
M  V30 108 1 45 69
M  V30 END BOND
M  V30 END CTAB
M  END

$$$$
