
     RDKit          3D

  0  0  0  0  0  0  0  0  0  0999 V3000
M  V30 BEGIN CTAB
M  V30 COUNTS 99 108 0 0 0
M  V30 BEGIN ATOM
M  V30 1 Pd 4.5624 4.1235 -3.8786 0
M  V30 2 Pb 5.4118 3.6095 -3.7631 0
M  V30 3 Pb 4.4674 3.7130 -4.7837 0
M  V30 4 Pb 3.6739 4.5774 -3.9544 0
M  V30 5 Pb 4.6054 4.4770 -2.9446 0
M  V30 6 Pd -0.5795 5.9090 0.9487 0
M  V30 7 Pb -0.6193 5.7995 1.9409 0
M  V30 8 Pb -0.5120 5.9898 -0.0463 0
M  V30 9 Pb 0.4205 5.8846 0.9597 0
M  V30 10 Pb -1.5809 5.9152 0.9229 0
M  V30 11 Pd 4.8437 -4.0896 4.4661 0
M  V30 12 Pb 4.7547 -3.9191 5.4390 0
M  V30 13 Pb 3.8608 -4.3642 4.4292 0
M  V30 14 Pb 5.7794 -3.7676 4.5288 0
M  V30 15 Pb 4.9685 -4.2509 3.4651 0
M  V30 16 Pd -4.1761 3.5575 4.0435 0
M  V30 17 Pb -4.0472 2.9378 4.8155 0
M  V30 18 Pb -5.0490 3.1012 3.8708 0
M  V30 19 Pb -3.3083 4.0117 4.2436 0
M  V30 20 Pb -4.2903 4.1570 3.2496 0
M  V30 21 Pd 1.4912 -1.9580 -6.7585 0
M  V30 22 Pb 2.2683 -2.3970 -6.3064 0
M  V30 23 Pb 0.8801 -2.6653 -6.4105 0
M  V30 24 Pb 2.0679 -1.2009 -7.0614 0
M  V30 25 Pb 0.6821 -1.5224 -7.1557 0
M  V30 26 Pd -0.9000 -2.9239 5.8923 0
M  V30 27 Pb -1.5261 -2.2509 6.2806 0
M  V30 28 Pb -0.2130 -3.5485 5.4670 0
M  V30 29 Pb -1.5376 -3.0565 5.1312 0
M  V30 30 Pb -0.3114 -2.8158 6.6831 0
M  V30 31 Pd -6.6647 -0.5820 0.9461 0
M  V30 32 Pb -7.2465 0.0107 0.3980 0
M  V30 33 Pb -6.6207 -1.2268 0.1648 0
M  V30 34 Pb -6.0430 -1.1865 1.4502 0
M  V30 35 Pb -6.7707 0.0516 1.7139 0
M  V30 36 Pd -5.4333 -1.6836 -4.7671 0
M  V30 37 Pb -5.8184 -2.0432 -3.9035 0
M  V30 38 Pb -6.1103 -0.9544 -4.7486 0
M  V30 39 Pb -4.9745 -1.3021 -5.5697 0
M  V30 40 Pb -4.7414 -2.4030 -4.7742 0
M  V30 41 Pd 6.8660 -2.3536 -0.9928 0
M  V30 42 Pb 6.3255 -2.6698 -1.7746 0
M  V30 43 Pb 7.2260 -1.6022 -1.5450 0
M  V30 44 Pb 6.4427 -3.0584 -0.3875 0
M  V30 45 Pb 7.4760 -2.0870 -0.2582 0
M  V30 46 Ag 0.3571 -3.1239 -6.1375 0
M  V30 47 Fe -1.9088 -3.1626 -5.4382 0
M  V30 48 Ag -4.1818 -2.8977 -4.8144 0
M  V30 49 Ag 0.0302 -1.2345 -7.3928 0
M  V30 50 Fe -2.2834 -1.0632 -6.8798 0
M  V30 51 Ag -4.5364 -1.0537 -6.1259 0
M  V30 52 Ag 2.8265 -2.7401 -5.9402 0
M  V30 53 Fe 4.3890 -2.8003 -4.1508 0
M  V30 54 Ag 5.9761 -2.9307 -2.3870 0
M  V30 55 Ag -2.0510 -3.1666 4.5933 0
M  V30 56 Fe -3.8008 -2.3680 3.1952 0
M  V30 57 Ag -5.5611 -1.6803 1.7522 0
M  V30 58 Ag 6.4484 -3.4634 4.4612 0
M  V30 59 Fe 7.5817 -2.5613 2.6079 0
M  V30 60 Ag 7.8826 -1.9792 0.3486 0
M  V30 61 Ag 4.5418 4.7300 -2.2419 0
M  V30 62 Fe 2.9498 5.3238 -0.5828 0
M  V30 63 Ag 1.1672 5.8539 0.8942 0
M  V30 64 Ag -3.9589 2.4371 5.3645 0
M  V30 65 Fe -2.9970 0.3722 6.0278 0
M  V30 66 Ag -1.9661 -1.7031 6.5365 0
M  V30 67 Ag 2.9945 4.8955 -3.9259 0
M  V30 68 Fe 1.2338 5.5096 -2.4536 0
M  V30 69 Ag -0.3755 6.0252 -0.7836 0
M  V30 70 Ag 4.5752 -3.7561 6.1364 0
M  V30 71 Fe 2.5265 -3.1955 7.1466 0
M  V30 72 Ag 0.2111 -2.7859 7.2040 0
M  V30 73 Ag 4.3858 3.3418 -5.4284 0
M  V30 74 Fe 3.4687 1.3981 -6.4347 0
M  V30 75 Ag 2.4748 -0.5994 -7.2433 0
M  V30 76 Ag -7.5983 0.3887 -0.1346 0
M  V30 77 Fe -7.4187 0.3055 -2.4851 0
M  V30 78 Ag -6.6116 -0.4365 -4.5736 0
M  V30 79 Ag 6.0116 3.1674 -3.6812 0
M  V30 80 Fe 6.8189 1.1013 -2.8343 0
M  V30 81 Ag 7.4547 -0.9983 -1.9256 0
M  V30 82 Ba 3.1284 -4.6018 4.3979 0
M  V30 83 Ga 1.7303 -4.2399 4.8023 0
M  V30 84 Ba 0.2809 -4.0329 5.1272 0
M  V30 85 Ba -0.6633 5.6977 2.6815 0
M  V30 86 Ga -1.6523 5.0344 3.5500 0
M  V30 87 Ba -2.6618 4.3626 4.3880 0
M  V30 88 Ba -6.6379 -1.7505 -0.3903 0
M  V30 89 Ga -6.3357 -1.9686 -1.8331 0
M  V30 90 Ba -6.0871 -2.3387 -3.2551 0
M  V30 91 Ba -5.7050 2.7443 3.8000 0
M  V30 92 Ga -6.2725 1.6366 3.0066 0
M  V30 93 Ba -6.9243 0.5413 2.2626 0
M  V30 94 Ba -2.3327 5.9087 0.9235 0
M  V30 95 Ga -3.3512 5.2642 1.7777 0
M  V30 96 Ba -4.3456 4.6063 2.6499 0
M  V30 97 Ba 5.0648 -4.4260 2.7206 0
M  V30 98 Ga 5.6109 -3.9284 1.4158 0
M  V30 99 Ba 6.0974 -3.6018 0.0357 0
M  V30 END ATOM
M  V30 BEGIN BOND
M  V30 1 1 1 2
M  V30 2 1 1 3
M  V30 3 1 1 4
M  V30 4 1 1 5
M  V30 5 1 6 7
M  V30 6 1 6 8
M  V30 7 1 6 9
M  V30 8 1 6 10
M  V30 9 1 11 12
M  V30 10 1 11 13
M  V30 11 1 11 14
M  V30 12 1 11 15
M  V30 13 1 16 17
M  V30 14 1 16 18
M  V30 15 1 16 19
M  V30 16 1 16 20
M  V30 17 1 21 22
M  V30 18 1 21 23
M  V30 19 1 21 24
M  V30 20 1 21 25
M  V30 21 1 26 27
M  V30 22 1 26 28
M  V30 23 1 26 29
M  V30 24 1 26 30
M  V30 25 1 31 32
M  V30 26 1 31 33
M  V30 27 1 31 34
M  V30 28 1 31 35
M  V30 29 1 36 37
M  V30 30 1 36 38
M  V30 31 1 36 39
M  V30 32 1 36 40
M  V30 33 1 41 42
M  V30 34 1 41 43
M  V30 35 1 41 44
M  V30 36 1 41 45
M  V30 37 1 46 47
M  V30 38 1 47 48
M  V30 39 1 49 50
M  V30 40 1 50 51
M  V30 41 1 52 53
M  V30 42 1 53 54
M  V30 43 1 55 56
M  V30 44 1 56 57
M  V30 45 1 58 59
M  V30 46 1 59 60
M  V30 47 1 61 62
M  V30 48 1 62 63
M  V30 49 1 64 65
M  V30 50 1 65 66
M  V30 51 1 67 68
M  V30 52 1 68 69
M  V30 53 1 70 71
M  V30 54 1 71 72
M  V30 55 1 73 74
M  V30 56 1 74 75
M  V30 57 1 76 77
M  V30 58 1 77 78
M  V30 59 1 79 80
M  V30 60 1 80 81
M  V30 61 1 82 83
M  V30 62 1 83 84
M  V30 63 1 85 86
M  V30 64 1 86 87
M  V30 65 1 88 89
M  V30 66 1 89 90
M  V30 67 1 91 92
M  V30 68 1 92 93
M  V30 69 1 94 95
M  V30 70 1 95 96
M  V30 71 1 97 98
M  V30 72 1 98 99
M  V30 73 1 2 79
M  V30 74 1 3 73
M  V30 75 1 4 67
M  V30 76 1 5 61
M  V30 77 1 7 85
M  V30 78 1 8 69
M  V30 79 1 9 63
M  V30 80 1 10 94
M  V30 81 1 12 70
M  V30 82 1 13 82
M  V30 83 1 14 58
M  V30 84 1 15 97
M  V30 85 1 17 64
M  V30 86 1 18 91
M  V30 87 1 19 87
M  V30 88 1 20 96
M  V30 89 1 22 52
M  V30 90 1 23 46
M  V30 91 1 24 75
M  V30 92 1 25 49
M  V30 93 1 27 66
M  V30 94 1 28 84
M  V30 95 1 29 55
M  V30 96 1 30 72
M  V30 97 1 32 76
M  V30 98 1 33 88
M  V30 99 1 34 57
M  V30 100 1 35 93
M  V30 101 1 37 90
M  V30 102 1 38 78
M  V30 103 1 39 51
M  V30 104 1 40 48
M  V30 105 1 42 54
M  V30 106 1 43 81
M  V30 107 1 44 99
M  V30 108 1 45 60
M  V30 END BOND
M  V30 END CTAB
M  END

$$$$
