
     RDKit          3D

  0  0  0  0  0  0  0  0  0  0999 V3000
M  V30 BEGIN CTAB
M  V30 COUNTS 99 108 0 0 0
M  V30 BEGIN ATOM
M  V30 1 Pd -3.3998 4.3912 -1.9197 0
M  V30 2 Pb -3.7585 3.8635 -2.6874 0
M  V30 3 Pb -3.1736 4.8641 -1.0472 0
M  V30 4 Pb -4.0948 5.0797 -2.0932 0
M  V30 5 Pb -2.6866 3.6919 -1.8168 0
M  V30 6 Pd -5.9054 5.4444 3.0774 0
M  V30 7 Pb -5.4188 4.8754 3.7358 0
M  V30 8 Pb -6.4103 6.0284 2.4515 0
M  V30 9 Pb -5.0382 5.6917 2.6057 0
M  V30 10 Pb -6.7604 5.0323 3.3947 0
M  V30 11 Pd 3.4627 -1.6602 -4.3293 0
M  V30 12 Pb 3.0189 -2.5518 -4.4122 0
M  V30 13 Pb 3.8741 -0.7792 -4.1000 0
M  V30 14 Pb 4.3468 -2.0568 -4.5795 0
M  V30 15 Pb 2.5799 -1.2356 -4.1285 0
M  V30 16 Pd 7.5747 -3.6757 -1.6605 0
M  V30 17 Pb 7.6283 -3.7422 -0.6588 0
M  V30 18 Pb 7.0468 -4.5232 -1.6575 0
M  V30 19 Pb 8.0419 -2.7968 -1.6038 0
M  V30 20 Pb 7.4584 -3.5787 -2.6462 0
M  V30 21 Pd -4.0291 -0.5550 -1.7163 0
M  V30 22 Pb -3.5764 -1.1671 -1.0692 0
M  V30 23 Pb -4.9222 -0.7133 -1.2829 0
M  V30 24 Pb -3.1428 -0.3642 -2.1376 0
M  V30 25 Pb -4.4279 0.0596 -2.3971 0
M  V30 26 Pd -6.2228 0.6099 3.0707 0
M  V30 27 Pb -5.7798 1.0922 3.8215 0
M  V30 28 Pb -5.3748 0.1038 2.9527 0
M  V30 29 Pb -7.0292 1.1896 3.2135 0
M  V30 30 Pb -6.6107 0.1551 2.2660 0
M  V30 31 Pd 2.3701 -4.7667 -0.3390 0
M  V30 32 Pb 1.4748 -4.3696 -0.1286 0
M  V30 33 Pb 2.5879 -4.6827 0.6391 0
M  V30 34 Pb 2.1448 -4.8360 -1.3147 0
M  V30 35 Pb 3.2328 -5.2342 -0.5475 0
M  V30 36 Pd 1.0327 1.6699 0.9128 0
M  V30 37 Pb 1.5772 1.6099 1.7495 0
M  V30 38 Pb 1.7966 2.0502 0.3921 0
M  V30 39 Pb 0.4695 1.7182 0.0866 0
M  V30 40 Pb 0.3079 1.1510 1.3588 0
M  V30 41 Pd 5.1652 -1.4101 2.9733 0
M  V30 42 Pb 5.8212 -0.7065 2.7110 0
M  V30 43 Pb 5.8318 -2.1025 2.6721 0
M  V30 44 Pb 4.5145 -2.1515 3.1488 0
M  V30 45 Pb 4.5271 -0.7049 3.2828 0
M  V30 46 Ag 8.2792 -2.1229 -1.3985 0
M  V30 47 Fe 7.6032 -0.7990 0.4353 0
M  V30 48 Ag 6.3448 -0.3032 2.3702 0
M  V30 49 Ag -4.6419 5.5774 -2.1022 0
M  V30 50 Fe -6.0179 6.3753 -0.3709 0
M  V30 51 Ag -6.6862 6.4106 1.8823 0
M  V30 52 Ag -4.6976 -0.2000 2.8942 0
M  V30 53 Fe -2.4474 0.2118 2.2730 0
M  V30 54 Ag -0.2157 0.6964 1.6378 0
M  V30 55 Ag -3.1887 -1.6189 -0.6139 0
M  V30 56 Fe -1.1941 -2.8644 -0.2745 0
M  V30 57 Ag 0.7979 -4.1116 0.0731 0
M  V30 58 Ag 1.9417 -0.8616 -4.0052 0
M  V30 59 Fe -0.2789 -0.6040 -3.2038 0
M  V30 60 Ag -2.4948 -0.1768 -2.4646 0
M  V30 61 Ag 4.0739 -0.1213 -3.8035 0
M  V30 62 Fe 3.3889 1.2394 -1.9835 0
M  V30 63 Ag 2.3522 2.2134 -0.0834 0
M  V30 64 Ba 5.0046 -2.3510 -4.7903 0
M  V30 65 Ga 6.1744 -2.9217 -4.0990 0
M  V30 66 Ba 7.3278 -3.4862 -3.3762 0
M  V30 67 Ba 1.9492 1.5512 2.3982 0
M  V30 68 Ga 3.0178 0.6923 2.9431 0
M  V30 69 Ba 4.0837 -0.1484 3.5206 0
M  V30 70 Ba -7.3718 4.6257 3.5555 0
M  V30 71 Ga -7.5416 3.1575 3.4831 0
M  V30 72 Ba -7.5773 1.6822 3.3727 0
M  V30 73 Ba -3.0458 5.2335 -0.3852 0
M  V30 74 Ga -3.7497 5.5121 0.9088 0
M  V30 75 Ba -4.3848 5.8359 2.2276 0
M  V30 76 Ba 2.6900 -4.6040 1.3837 0
M  V30 77 Ga 3.3810 -3.6703 2.3020 0
M  V30 78 Ba 4.0658 -2.7489 3.2374 0
M  V30 79 Ba -5.5967 -0.8243 -0.9615 0
M  V30 80 Ga -6.2273 -0.5068 0.3401 0
M  V30 81 Ba -6.8556 -0.1884 1.6426 0
M  V30 82 Ba -2.1784 3.1357 -1.8544 0
M  V30 83 Ga -1.0677 2.4805 -1.1321 0
M  V30 84 Ba 0.0553 1.7232 -0.5396 0
M  V30 85 Ba -5.1120 4.4169 4.2392 0
M  V30 86 Ga -5.2194 2.9564 4.3540 0
M  V30 87 Ba -5.4183 1.5012 4.3299 0
M  V30 88 Ba 2.6657 -3.2130 -4.3899 0
M  V30 89 Ga 2.3224 -4.0764 -3.2407 0
M  V30 90 Ba 2.0061 -4.8974 -2.0531 0
M  V30 91 Ba -4.0918 3.4207 -3.1904 0
M  V30 92 Ga -4.3945 1.9797 -3.1145 0
M  V30 93 Ba -4.6432 0.5376 -2.9341 0
M  V30 94 Ba 7.6548 -3.8012 0.0938 0
M  V30 95 Ga 6.9796 -3.1856 1.2620 0
M  V30 96 Ba 6.3507 -2.6193 2.4799 0
M  V30 97 Ba 6.6293 -5.1416 -1.5937 0
M  V30 98 Ga 5.2334 -5.3762 -1.1726 0
M  V30 99 Ba 3.8409 -5.6295 -0.7513 0
M  V30 END ATOM
M  V30 BEGIN BOND
M  V30 1 1 1 2
M  V30 2 1 1 3
M  V30 3 1 1 4
M  V30 4 1 1 5
M  V30 5 1 6 7
M  V30 6 1 6 8
M  V30 7 1 6 9
M  V30 8 1 6 10
M  V30 9 1 11 12
M  V30 10 1 11 13
M  V30 11 1 11 14
M  V30 12 1 11 15
M  V30 13 1 16 17
M  V30 14 1 16 18
M  V30 15 1 16 19
M  V30 16 1 16 20
M  V30 17 1 21 22
M  V30 18 1 21 23
M  V30 19 1 21 24
M  V30 20 1 21 25
M  V30 21 1 26 27
M  V30 22 1 26 28
M  V30 23 1 26 29
M  V30 24 1 26 30
M  V30 25 1 31 32
M  V30 26 1 31 33
M  V30 27 1 31 34
M  V30 28 1 31 35
M  V30 29 1 36 37
M  V30 30 1 36 38
M  V30 31 1 36 39
M  V30 32 1 36 40
M  V30 33 1 41 42
M  V30 34 1 41 43
M  V30 35 1 41 44
M  V30 36 1 41 45
M  V30 37 1 46 47
M  V30 38 1 47 48
M  V30 39 1 49 50
M  V30 40 1 50 51
M  V30 41 1 52 53
M  V30 42 1 53 54
M  V30 43 1 55 56
M  V30 44 1 56 57
M  V30 45 1 58 59
M  V30 46 1 59 60
M  V30 47 1 61 62
M  V30 48 1 62 63
M  V30 49 1 64 65
M  V30 50 1 65 66
M  V30 51 1 67 68
M  V30 52 1 68 69
M  V30 53 1 70 71
M  V30 54 1 71 72
M  V30 55 1 73 74
M  V30 56 1 74 75
M  V30 57 1 76 77
M  V30 58 1 77 78
M  V30 59 1 79 80
M  V30 60 1 80 81
M  V30 61 1 82 83
M  V30 62 1 83 84
M  V30 63 1 85 86
M  V30 64 1 86 87
M  V30 65 1 88 89
M  V30 66 1 89 90
M  V30 67 1 91 92
M  V30 68 1 92 93
M  V30 69 1 94 95
M  V30 70 1 95 96
M  V30 71 1 97 98
M  V30 72 1 98 99
M  V30 73 1 2 91
M  V30 74 1 3 73
M  V30 75 1 4 49
M  V30 76 1 5 82
M  V30 77 1 7 85
M  V30 78 1 8 51
M  V30 79 1 9 75
M  V30 80 1 10 70
M  V30 81 1 12 88
M  V30 82 1 13 61
M  V30 83 1 14 64
M  V30 84 1 15 58
M  V30 85 1 17 94
M  V30 86 1 18 97
M  V30 87 1 19 46
M  V30 88 1 20 66
M  V30 89 1 22 55
M  V30 90 1 23 79
M  V30 91 1 24 60
M  V30 92 1 25 93
M  V30 93 1 27 87
M  V30 94 1 28 52
M  V30 95 1 29 72
M  V30 96 1 30 81
M  V30 97 1 32 57
M  V30 98 1 33 76
M  V30 99 1 34 90
M  V30 100 1 35 99
M  V30 101 1 37 67
M  V30 102 1 38 63
M  V30 103 1 39 84
M  V30 104 1 40 54
M  V30 105 1 42 48
M  V30 106 1 43 96
M  V30 107 1 44 78
M  V30 108 1 45 69
M  V30 END BOND
M  V30 END CTAB
M  END

$$$$
