
     RDKit          3D

  0  0  0  0  0  0  0  0  0  0999 V3000
M  V30 BEGIN CTAB
M  V30 COUNTS 99 108 0 0 0
M  V30 BEGIN ATOM
M  V30 1 Pd 1.7167 -6.7539 4.0548 0
M  V30 2 Pb 1.1345 -6.3344 4.7478 0
M  V30 3 Pb 2.4916 -6.1788 4.3206 0
M  V30 4 Pb 2.2183 -7.1198 3.2690 0
M  V30 5 Pb 0.9256 -7.2868 3.7681 0
M  V30 6 Pd -4.9648 2.2563 -5.7816 0
M  V30 7 Pb -5.4095 1.4096 -5.5007 0
M  V30 8 Pb -4.4696 3.0773 -6.0483 0
M  V30 9 Pb -5.1886 2.7267 -4.9258 0
M  V30 10 Pb -4.5560 1.7601 -6.5593 0
M  V30 11 Pd -0.7193 -1.3736 -6.4055 0
M  V30 12 Pb -1.4732 -1.9828 -6.1725 0
M  V30 13 Pb -0.1078 -1.8918 -5.8094 0
M  V30 14 Pb -1.3710 -0.8365 -6.9644 0
M  V30 15 Pb 0.0149 -0.7131 -6.5723 0
M  V30 16 Pd -0.1162 -6.1176 -0.3431 0
M  V30 17 Pb 0.3240 -5.5490 -1.0373 0
M  V30 18 Pb 0.7235 -6.6536 -0.2363 0
M  V30 19 Pb -0.5508 -6.7122 0.3290 0
M  V30 20 Pb -0.9180 -5.5185 -0.3261 0
M  V30 21 Pd -3.3640 -1.1868 4.4004 0
M  V30 22 Pb -3.2951 -0.7329 5.2851 0
M  V30 23 Pb -3.4171 -1.6423 3.5077 0
M  V30 24 Pb -2.9862 -2.0076 4.8288 0
M  V30 25 Pb -3.6735 -0.3175 4.0064 0
M  V30 26 Pd 3.9741 3.4333 -2.8126 0
M  V30 27 Pb 3.6874 3.0809 -3.7062 0
M  V30 28 Pb 4.2835 2.5239 -2.5204 0
M  V30 29 Pb 3.6816 4.3630 -3.0413 0
M  V30 30 Pb 4.2369 3.7581 -1.9088 0
M  V30 31 Pd -0.5254 6.2975 -2.0090 0
M  V30 32 Pb -0.8121 6.3586 -2.9603 0
M  V30 33 Pb -1.4606 5.9966 -1.8029 0
M  V30 34 Pb -0.2448 6.2201 -1.0508 0
M  V30 35 Pb 0.4032 6.5412 -2.2898 0
M  V30 36 Pd 5.1188 0.2000 3.6215 0
M  V30 37 Pb 5.3046 -0.1059 2.6850 0
M  V30 38 Pb 5.1065 -0.7395 3.9686 0
M  V30 39 Pb 5.1353 1.1313 3.2685 0
M  V30 40 Pb 4.8177 0.5692 4.4994 0
M  V30 41 Pd -1.1373 3.2299 5.2111 0
M  V30 42 Pb -1.9769 3.1395 4.6714 0
M  V30 43 Pb -0.2692 3.1907 5.7061 0
M  V30 44 Pb -1.5517 2.6508 5.9088 0
M  V30 45 Pb -0.7258 3.8258 4.5189 0
M  V30 46 Ag -1.4961 -5.0480 -0.2305 0
M  V30 47 Fe -2.5149 -3.5052 1.2652 0
M  V30 48 Ag -3.4484 -1.9837 2.8365 0
M  V30 49 Ag 3.0604 -5.7272 4.5113 0
M  V30 50 Fe 4.0890 -3.5892 4.3743 0
M  V30 51 Ag 5.1040 -1.4454 4.2269 0
M  V30 52 Ag -5.2077 3.1077 -4.2769 0
M  V30 53 Fe -3.8041 4.4476 -2.8997 0
M  V30 54 Ag -2.1686 5.7416 -1.7537 0
M  V30 55 Ag -5.5718 0.6998 -5.3546 0
M  V30 56 Fe -4.1714 -1.1910 -5.5211 0
M  V30 57 Ag -2.1247 -2.2753 -5.9678 0
M  V30 58 Ag 0.3334 -2.2692 -5.3364 0
M  V30 59 Fe 0.5146 -3.7062 -3.4553 0
M  V30 60 Ag 0.6590 -5.1438 -1.5715 0
M  V30 61 Ag -0.0261 6.1617 -0.3343 0
M  V30 62 Fe -0.2384 5.2070 1.8319 0
M  V30 63 Ag -0.4071 4.2846 4.0159 0
M  V30 64 Ag 0.6243 -6.0061 5.1850 0
M  V30 65 Fe -1.0307 -4.3053 5.2515 0
M  V30 66 Ag -2.6560 -2.5757 5.1913 0
M  V30 67 Ag 4.4237 3.9324 -1.2087 0
M  V30 68 Fe 4.8115 2.9964 0.9329 0
M  V30 69 Ag 5.1414 1.8086 2.9562 0
M  V30 70 Ag 4.5344 1.8774 -2.2236 0
M  V30 71 Fe 4.9953 0.7175 -0.1972 0
M  V30 72 Ag 5.3737 -0.2423 1.9474 0
M  V30 73 Ag -4.0579 3.6859 -6.1687 0
M  V30 74 Fe -2.5403 5.1309 -5.0665 0
M  V30 75 Ag -1.0791 6.3474 -3.6555 0
M  V30 76 Ag 0.5630 -0.2038 -6.6455 0
M  V30 77 Fe 2.0311 1.3096 -5.5470 0
M  V30 78 Ag 3.4612 2.7964 -4.3650 0
M  V30 79 Ag 4.5079 0.9200 5.0841 0
M  V30 80 Fe 2.5068 2.0327 5.7130 0
M  V30 81 Ag 0.3939 3.0675 6.0343 0
M  V30 82 Ba 2.5139 -7.3734 2.6258 0
M  V30 83 Ga 1.9924 -7.2377 1.2490 0
M  V30 84 Ba 1.3560 -7.0247 -0.0684 0
M  V30 85 Ba -4.1938 1.3942 -7.1181 0
M  V30 86 Ga -3.0343 0.4643 -7.2223 0
M  V30 87 Ba -1.8826 -0.4657 -7.3916 0
M  V30 88 Ba -3.8666 0.3668 3.7565 0
M  V30 89 Ga -3.2644 1.6996 3.9836 0
M  V30 90 Ba -2.5930 2.9878 4.2665 0
M  V30 91 Ba 0.3202 -7.6340 3.5059 0
M  V30 92 Ga -0.3189 -7.4597 2.1957 0
M  V30 93 Ba -0.8294 -7.1689 0.8500 0
M  V30 94 Ba -3.2147 -0.3705 5.9327 0
M  V30 95 Ga -2.5601 0.9112 6.2291 0
M  V30 96 Ba -1.8800 2.2016 6.4069 0
M  V30 97 Ba 3.4848 5.0798 -3.1502 0
M  V30 98 Ga 2.2864 5.8914 -2.8580 0
M  V30 99 Ba 1.0846 6.6969 -2.5636 0
M  V30 END ATOM
M  V30 BEGIN BOND
M  V30 1 1 1 2
M  V30 2 1 1 3
M  V30 3 1 1 4
M  V30 4 1 1 5
M  V30 5 1 6 7
M  V30 6 1 6 8
M  V30 7 1 6 9
M  V30 8 1 6 10
M  V30 9 1 11 12
M  V30 10 1 11 13
M  V30 11 1 11 14
M  V30 12 1 11 15
M  V30 13 1 16 17
M  V30 14 1 16 18
M  V30 15 1 16 19
M  V30 16 1 16 20
M  V30 17 1 21 22
M  V30 18 1 21 23
M  V30 19 1 21 24
M  V30 20 1 21 25
M  V30 21 1 26 27
M  V30 22 1 26 28
M  V30 23 1 26 29
M  V30 24 1 26 30
M  V30 25 1 31 32
M  V30 26 1 31 33
M  V30 27 1 31 34
M  V30 28 1 31 35
M  V30 29 1 36 37
M  V30 30 1 36 38
M  V30 31 1 36 39
M  V30 32 1 36 40
M  V30 33 1 41 42
M  V30 34 1 41 43
M  V30 35 1 41 44
M  V30 36 1 41 45
M  V30 37 1 46 47
M  V30 38 1 47 48
M  V30 39 1 49 50
M  V30 40 1 50 51
M  V30 41 1 52 53
M  V30 42 1 53 54
M  V30 43 1 55 56
M  V30 44 1 56 57
M  V30 45 1 58 59
M  V30 46 1 59 60
M  V30 47 1 61 62
M  V30 48 1 62 63
M  V30 49 1 64 65
M  V30 50 1 65 66
M  V30 51 1 67 68
M  V30 52 1 68 69
M  V30 53 1 70 71
M  V30 54 1 71 72
M  V30 55 1 73 74
M  V30 56 1 74 75
M  V30 57 1 76 77
M  V30 58 1 77 78
M  V30 59 1 79 80
M  V30 60 1 80 81
M  V30 61 1 82 83
M  V30 62 1 83 84
M  V30 63 1 85 86
M  V30 64 1 86 87
M  V30 65 1 88 89
M  V30 66 1 89 90
M  V30 67 1 91 92
M  V30 68 1 92 93
M  V30 69 1 94 95
M  V30 70 1 95 96
M  V30 71 1 97 98
M  V30 72 1 98 99
M  V30 73 1 2 64
M  V30 74 1 3 49
M  V30 75 1 4 82
M  V30 76 1 5 91
M  V30 77 1 7 55
M  V30 78 1 8 73
M  V30 79 1 9 52
M  V30 80 1 10 85
M  V30 81 1 12 57
M  V30 82 1 13 58
M  V30 83 1 14 87
M  V30 84 1 15 76
M  V30 85 1 17 60
M  V30 86 1 18 84
M  V30 87 1 19 93
M  V30 88 1 20 46
M  V30 89 1 22 94
M  V30 90 1 23 48
M  V30 91 1 24 66
M  V30 92 1 25 88
M  V30 93 1 27 78
M  V30 94 1 28 70
M  V30 95 1 29 97
M  V30 96 1 30 67
M  V30 97 1 32 75
M  V30 98 1 33 54
M  V30 99 1 34 61
M  V30 100 1 35 99
M  V30 101 1 37 72
M  V30 102 1 38 51
M  V30 103 1 39 69
M  V30 104 1 40 79
M  V30 105 1 42 90
M  V30 106 1 43 81
M  V30 107 1 44 96
M  V30 108 1 45 63
M  V30 END BOND
M  V30 END CTAB
M  END

$$$$
