
     RDKit          3D

  0  0  0  0  0  0  0  0  0  0999 V3000
M  V30 BEGIN CTAB
M  V30 COUNTS 99 108 0 0 0
M  V30 BEGIN ATOM
M  V30 1 Pd 2.0550 -5.7327 2.3759 0
M  V30 2 Pb 2.6717 -6.1601 1.7132 0
M  V30 3 Pb 2.7958 -5.7692 3.0447 0
M  V30 4 Pb 1.4611 -5.3329 3.0682 0
M  V30 5 Pb 1.3125 -5.6402 1.7042 0
M  V30 6 Pd -2.1653 -2.4552 2.1591 0
M  V30 7 Pb -2.6991 -1.9762 1.4248 0
M  V30 8 Pb -1.6721 -2.9120 2.8945 0
M  V30 9 Pb -1.8528 -3.1689 1.5246 0
M  V30 10 Pb -2.4156 -1.7614 2.8177 0
M  V30 11 Pd 0.7501 -1.0525 -6.4356 0
M  V30 12 Pb -0.0037 -1.4579 -6.9376 0
M  V30 13 Pb 0.3166 -0.1355 -6.5328 0
M  V30 14 Pb 1.5172 -0.7002 -5.8905 0
M  V30 15 Pb 1.1211 -1.9622 -6.2810 0
M  V30 16 Pd -5.7138 2.0830 -0.1119 0
M  V30 17 Pb -6.0665 1.9914 -1.0460 0
M  V30 18 Pb -6.1775 2.9645 -0.0337 0
M  V30 19 Pb -5.2080 1.1918 -0.1664 0
M  V30 20 Pb -5.4235 2.2083 0.8249 0
M  V30 21 Pd 5.5946 -2.0336 3.7430 0
M  V30 22 Pb 6.2217 -2.3503 3.0313 0
M  V30 23 Pb 5.7540 -1.0869 3.4714 0
M  V30 24 Pb 5.4342 -2.9755 4.0402 0
M  V30 25 Pb 4.9463 -1.6771 4.4190 0
M  V30 26 Pd -4.0748 2.2681 -5.4109 0
M  V30 27 Pb -4.9560 2.2387 -4.9404 0
M  V30 28 Pb -3.1449 2.2287 -5.8257 0
M  V30 29 Pb -3.8816 3.1611 -5.0041 0
M  V30 30 Pb -4.3169 1.4290 -5.8815 0
M  V30 31 Pd -3.6140 6.7712 0.7215 0
M  V30 32 Pb -3.5502 6.5862 1.7038 0
M  V30 33 Pb -2.6524 7.0323 0.7617 0
M  V30 34 Pb -3.6030 6.8392 -0.2737 0
M  V30 35 Pb -4.5735 6.4921 0.6808 0
M  V30 36 Pd 1.9380 4.2284 4.4568 0
M  V30 37 Pb 1.8786 5.0047 3.8345 0
M  V30 38 Pb 1.0023 4.4506 4.7394 0
M  V30 39 Pb 1.9843 3.4008 5.0190 0
M  V30 40 Pb 2.8402 3.9846 4.1081 0
M  V30 41 Pd 5.2731 -3.9927 -1.4986 0
M  V30 42 Pb 5.9317 -3.7018 -0.8011 0
M  V30 43 Pb 5.2094 -4.8963 -1.0800 0
M  V30 44 Pb 4.6714 -4.3060 -2.2267 0
M  V30 45 Pb 5.2305 -3.0845 -1.9246 0
M  V30 46 Ag 5.8251 -0.3586 3.3187 0
M  V30 47 Fe 4.7618 1.7518 3.5191 0
M  V30 48 Ag 3.4889 3.7267 3.8413 0
M  V30 49 Ag -1.9267 7.1828 0.8540 0
M  V30 50 Fe 0.0104 6.4888 2.0310 0
M  V30 51 Ag 1.7466 5.5532 3.3459 0
M  V30 52 Ag 4.4602 -1.3362 4.8809 0
M  V30 53 Fe 3.2177 0.6599 5.2345 0
M  V30 54 Ag 2.0792 2.7428 5.3700 0
M  V30 55 Ag -2.6272 -1.1938 3.2355 0
M  V30 56 Fe -3.8970 0.7360 2.8118 0
M  V30 57 Ag -5.1858 2.2160 1.5214 0
M  V30 58 Ag -3.7790 3.8514 -4.7285 0
M  V30 59 Fe -3.6661 5.3642 -2.9023 0
M  V30 60 Ag -3.5653 6.8071 -1.0198 0
M  V30 61 Ag 2.1124 -0.5273 -5.4589 0
M  V30 62 Fe 3.6624 -1.3795 -3.8645 0
M  V30 63 Ag 5.0994 -2.4350 -2.2859 0
M  V30 64 Ag 1.4018 -2.6233 -6.0861 0
M  V30 65 Fe 2.8029 -3.6864 -4.5006 0
M  V30 66 Ag 4.2434 -4.4980 -2.8054 0
M  V30 67 Ag -0.6471 -1.6815 -7.2223 0
M  V30 68 Fe -2.8075 -0.7765 -7.0134 0
M  V30 69 Ag -4.3830 0.8024 -6.2673 0
M  V30 70 Ag -3.3918 6.3956 2.4139 0
M  V30 71 Fe -1.6362 5.5305 3.7648 0
M  V30 72 Ag 0.2890 4.6605 4.8569 0
M  V30 73 Ba -0.0021 0.5578 -6.6256 0
M  V30 74 Ga -1.2553 1.3279 -6.3433 0
M  V30 75 Ba -2.4398 2.2197 -6.1318 0
M  V30 76 Ba -3.0974 -1.6650 0.8368 0
M  V30 77 Ga -3.9617 -0.5186 0.3885 0
M  V30 78 Ba -4.8325 0.5205 -0.2629 0
M  V30 79 Ba 6.6905 -2.5597 2.4844 0
M  V30 80 Ga 6.5484 -3.0414 1.0956 0
M  V30 81 Ba 6.4616 -3.5246 -0.2972 0
M  V30 82 Ba -6.4927 3.6375 0.0615 0
M  V30 83 Ga -5.9180 4.9667 0.3391 0
M  V30 84 Ba -5.2873 6.2706 0.6153 0
M  V30 85 Ba 0.7453 -5.5415 1.2148 0
M  V30 86 Ga -0.4234 -4.6320 1.1408 0
M  V30 87 Ba -1.5887 -3.7173 1.0776 0
M  V30 88 Ba -6.3842 1.9668 -1.7281 0
M  V30 89 Ga -5.9753 2.0704 -3.1434 0
M  V30 90 Ba -5.6036 2.1686 -4.5693 0
M  V30 91 Ba 1.0153 -5.0381 3.5885 0
M  V30 92 Ga -0.1481 -4.1420 3.5363 0
M  V30 93 Ba -1.3091 -3.2449 3.4554 0
M  V30 94 Ba 3.3603 -5.7645 3.5365 0
M  V30 95 Ga 4.3453 -4.7340 3.9133 0
M  V30 96 Ba 5.3153 -3.6812 4.2665 0
M  V30 97 Ba 3.1761 -6.4923 1.2664 0
M  V30 98 Ga 4.1376 -6.0444 0.2418 0
M  V30 99 Ba 5.0887 -5.5715 -0.7812 0
M  V30 END ATOM
M  V30 BEGIN BOND
M  V30 1 1 1 2
M  V30 2 1 1 3
M  V30 3 1 1 4
M  V30 4 1 1 5
M  V30 5 1 6 7
M  V30 6 1 6 8
M  V30 7 1 6 9
M  V30 8 1 6 10
M  V30 9 1 11 12
M  V30 10 1 11 13
M  V30 11 1 11 14
M  V30 12 1 11 15
M  V30 13 1 16 17
M  V30 14 1 16 18
M  V30 15 1 16 19
M  V30 16 1 16 20
M  V30 17 1 21 22
M  V30 18 1 21 23
M  V30 19 1 21 24
M  V30 20 1 21 25
M  V30 21 1 26 27
M  V30 22 1 26 28
M  V30 23 1 26 29
M  V30 24 1 26 30
M  V30 25 1 31 32
M  V30 26 1 31 33
M  V30 27 1 31 34
M  V30 28 1 31 35
M  V30 29 1 36 37
M  V30 30 1 36 38
M  V30 31 1 36 39
M  V30 32 1 36 40
M  V30 33 1 41 42
M  V30 34 1 41 43
M  V30 35 1 41 44
M  V30 36 1 41 45
M  V30 37 1 46 47
M  V30 38 1 47 48
M  V30 39 1 49 50
M  V30 40 1 50 51
M  V30 41 1 52 53
M  V30 42 1 53 54
M  V30 43 1 55 56
M  V30 44 1 56 57
M  V30 45 1 58 59
M  V30 46 1 59 60
M  V30 47 1 61 62
M  V30 48 1 62 63
M  V30 49 1 64 65
M  V30 50 1 65 66
M  V30 51 1 67 68
M  V30 52 1 68 69
M  V30 53 1 70 71
M  V30 54 1 71 72
M  V30 55 1 73 74
M  V30 56 1 74 75
M  V30 57 1 76 77
M  V30 58 1 77 78
M  V30 59 1 79 80
M  V30 60 1 80 81
M  V30 61 1 82 83
M  V30 62 1 83 84
M  V30 63 1 85 86
M  V30 64 1 86 87
M  V30 65 1 88 89
M  V30 66 1 89 90
M  V30 67 1 91 92
M  V30 68 1 92 93
M  V30 69 1 94 95
M  V30 70 1 95 96
M  V30 71 1 97 98
M  V30 72 1 98 99
M  V30 73 1 2 97
M  V30 74 1 3 94
M  V30 75 1 4 91
M  V30 76 1 5 85
M  V30 77 1 7 76
M  V30 78 1 8 93
M  V30 79 1 9 87
M  V30 80 1 10 55
M  V30 81 1 12 67
M  V30 82 1 13 73
M  V30 83 1 14 61
M  V30 84 1 15 64
M  V30 85 1 17 88
M  V30 86 1 18 82
M  V30 87 1 19 78
M  V30 88 1 20 57
M  V30 89 1 22 79
M  V30 90 1 23 46
M  V30 91 1 24 96
M  V30 92 1 25 52
M  V30 93 1 27 90
M  V30 94 1 28 75
M  V30 95 1 29 58
M  V30 96 1 30 69
M  V30 97 1 32 70
M  V30 98 1 33 49
M  V30 99 1 34 60
M  V30 100 1 35 84
M  V30 101 1 37 51
M  V30 102 1 38 72
M  V30 103 1 39 54
M  V30 104 1 40 48
M  V30 105 1 42 81
M  V30 106 1 43 99
M  V30 107 1 44 66
M  V30 108 1 45 63
M  V30 END BOND
M  V30 END CTAB
M  END

$$$$
