
     RDKit          3D

  0  0  0  0  0  0  0  0  0  0999 V3000
M  V30 BEGIN CTAB
M  V30 COUNTS 99 108 0 0 0
M  V30 BEGIN ATOM
M  V30 1 Pd -1.0055 -4.3737 -0.6066 0
M  V30 2 Pb -1.8091 -4.5703 -1.1698 0
M  V30 3 Pb -0.8231 -3.5737 -1.1789 0
M  V30 4 Pb -1.2110 -5.1279 0.0155 0
M  V30 5 Pb -0.2494 -4.1234 -0.0060 0
M  V30 6 Pd 5.6956 3.1658 -5.5840 0
M  V30 7 Pb 5.6898 3.9624 -4.9835 0
M  V30 8 Pb 5.5839 2.2487 -5.9941 0
M  V30 9 Pb 6.4771 2.8175 -5.0778 0
M  V30 10 Pb 4.8670 3.4661 -6.0483 0
M  V30 11 Pd -4.3298 4.0368 1.2507 0
M  V30 12 Pb -4.6242 3.7798 0.3283 0
M  V30 13 Pb -3.4776 4.4350 0.9169 0
M  V30 14 Pb -4.0129 4.2217 2.1811 0
M  V30 15 Pb -5.1798 3.6216 1.5729 0
M  V30 16 Pd -1.1185 1.2142 4.4860 0
M  V30 17 Pb -1.5453 2.1205 4.5267 0
M  V30 18 Pb -2.0236 0.8001 4.5768 0
M  V30 19 Pb -0.2034 1.6255 4.4598 0
M  V30 20 Pb -0.7117 0.2973 4.4747 0
M  V30 21 Pd 3.3827 3.7175 1.4816 0
M  V30 22 Pb 3.8291 4.1251 0.6797 0
M  V30 23 Pb 2.5369 4.1692 1.2003 0
M  V30 24 Pb 2.9577 3.3750 2.3246 0
M  V30 25 Pb 4.2224 3.2411 1.7512 0
M  V30 26 Pd -3.0916 -3.7795 3.9425 0
M  V30 27 Pb -3.4724 -2.9128 4.2619 0
M  V30 28 Pb -4.0139 -4.0911 3.7186 0
M  V30 29 Pb -2.7254 -4.6304 3.5648 0
M  V30 30 Pb -2.1693 -3.4300 4.1198 0
M  V30 31 Pd -7.7309 -1.7413 -0.9777 0
M  V30 32 Pb -7.2617 -2.3986 -1.5664 0
M  V30 33 Pb -7.8769 -2.4722 -0.3155 0
M  V30 34 Pb -8.0626 -1.0696 -0.3181 0
M  V30 35 Pb -7.4537 -0.9689 -1.5495 0
M  V30 36 Pd 5.7364 -1.0078 0.1921 0
M  V30 37 Pb 5.9228 -0.3016 0.8774 0
M  V30 38 Pb 5.5128 -1.6774 -0.5218 0
M  V30 39 Pb 6.4442 -0.6088 -0.3828 0
M  V30 40 Pb 5.0219 -1.4175 0.7517 0
M  V30 41 Pd 2.4937 -1.2872 -4.3655 0
M  V30 42 Pb 3.2737 -1.0316 -4.9635 0
M  V30 43 Pb 1.6931 -1.4524 -3.7859 0
M  V30 44 Pb 3.0884 -1.8759 -3.8085 0
M  V30 45 Pb 1.9188 -0.6896 -4.9180 0
M  V30 46 Ag 5.6413 4.4512 -4.4183 0
M  V30 47 Fe 4.9109 4.5434 -2.1578 0
M  V30 48 Ag 4.1411 4.4788 0.0908 0
M  V30 49 Ag -2.4361 -4.6467 -1.5757 0
M  V30 50 Fe -4.6584 -3.8583 -1.8618 0
M  V30 51 Ag -6.8296 -2.8973 -1.9218 0
M  V30 52 Ag -5.8225 3.2684 1.7256 0
M  V30 53 Fe -7.1425 1.4071 1.0736 0
M  V30 54 Ag -8.1875 -0.5284 0.1831 0
M  V30 55 Ag 4.1812 3.5056 -6.3263 0
M  V30 56 Fe 2.4740 1.8966 -6.1054 0
M  V30 57 Ag 1.6088 -0.1534 -5.3279 0
M  V30 58 Ag -4.8877 3.5068 -0.3206 0
M  V30 59 Fe -6.0360 1.6483 -1.2562 0
M  V30 60 Ag -7.1885 -0.3399 -1.8613 0
M  V30 61 Ag 6.9921 2.5040 -4.6429 0
M  V30 62 Fe 7.1520 1.1100 -2.7367 0
M  V30 63 Ag 6.9385 -0.2823 -0.8342 0
M  V30 64 Ag 0.2922 -3.9128 0.4645 0
M  V30 65 Fe 2.3756 -2.8476 0.8478 0
M  V30 66 Ag 4.4670 -1.7622 1.1112 0
M  V30 67 Ag -4.7040 -4.2794 3.4976 0
M  V30 68 Fe -6.4039 -3.7640 1.9256 0
M  V30 69 Ag -7.8638 -2.9860 0.2261 0
M  V30 70 Ag -2.8223 4.7288 0.7069 0
M  V30 71 Fe -0.4535 4.6299 0.8199 0
M  V30 72 Ag 1.9129 4.5034 0.9542 0
M  V30 73 Ba 4.8317 2.8649 1.9824 0
M  V30 74 Ga 5.4499 1.5595 1.6692 0
M  V30 75 Ba 6.0724 0.2553 1.3596 0
M  V30 76 Ba 0.4888 1.9186 4.5086 0
M  V30 77 Ga 1.5526 2.5259 3.6790 0
M  V30 78 Ba 2.7105 3.1476 2.9997 0
M  V30 79 Ba -2.6966 0.4866 4.6799 0
M  V30 80 Ga -3.2339 -0.8820 4.5750 0
M  V30 81 Ba -3.7630 -2.2536 4.4673 0
M  V30 82 Ba 5.4878 1.5293 -6.2267 0
M  V30 83 Ga 4.6424 0.3688 -5.8158 0
M  V30 84 Ba 3.8274 -0.8285 -5.4518 0
M  V30 85 Ba -0.4157 -0.3952 4.4840 0
M  V30 86 Ga -0.9480 -1.7693 4.3591 0
M  V30 87 Ba -1.4838 -3.1419 4.2337 0
M  V30 88 Ba -3.7287 4.3419 2.8652 0
M  V30 89 Ga -2.8103 3.5698 3.7270 0
M  V30 90 Ba -1.8907 2.7873 4.5781 0
M  V30 91 Ba -1.3527 -5.6459 0.5378 0
M  V30 92 Ga -1.9105 -5.5022 1.8954 0
M  V30 93 Ba -2.4769 -5.2570 3.2348 0
M  V30 94 Ba 5.3210 -2.1852 -1.0452 0
M  V30 95 Ga 4.4298 -2.2283 -2.2274 0
M  V30 96 Ba 3.5530 -2.3245 -3.4172 0
M  V30 97 Ba -0.7374 -2.9434 -1.5767 0
M  V30 98 Ga 0.2185 -2.2801 -2.4861 0
M  V30 99 Ba 1.0463 -1.4702 -3.4019 0
M  V30 END ATOM
M  V30 BEGIN BOND
M  V30 1 1 1 2
M  V30 2 1 1 3
M  V30 3 1 1 4
M  V30 4 1 1 5
M  V30 5 1 6 7
M  V30 6 1 6 8
M  V30 7 1 6 9
M  V30 8 1 6 10
M  V30 9 1 11 12
M  V30 10 1 11 13
M  V30 11 1 11 14
M  V30 12 1 11 15
M  V30 13 1 16 17
M  V30 14 1 16 18
M  V30 15 1 16 19
M  V30 16 1 16 20
M  V30 17 1 21 22
M  V30 18 1 21 23
M  V30 19 1 21 24
M  V30 20 1 21 25
M  V30 21 1 26 27
M  V30 22 1 26 28
M  V30 23 1 26 29
M  V30 24 1 26 30
M  V30 25 1 31 32
M  V30 26 1 31 33
M  V30 27 1 31 34
M  V30 28 1 31 35
M  V30 29 1 36 37
M  V30 30 1 36 38
M  V30 31 1 36 39
M  V30 32 1 36 40
M  V30 33 1 41 42
M  V30 34 1 41 43
M  V30 35 1 41 44
M  V30 36 1 41 45
M  V30 37 1 46 47
M  V30 38 1 47 48
M  V30 39 1 49 50
M  V30 40 1 50 51
M  V30 41 1 52 53
M  V30 42 1 53 54
M  V30 43 1 55 56
M  V30 44 1 56 57
M  V30 45 1 58 59
M  V30 46 1 59 60
M  V30 47 1 61 62
M  V30 48 1 62 63
M  V30 49 1 64 65
M  V30 50 1 65 66
M  V30 51 1 67 68
M  V30 52 1 68 69
M  V30 53 1 70 71
M  V30 54 1 71 72
M  V30 55 1 73 74
M  V30 56 1 74 75
M  V30 57 1 76 77
M  V30 58 1 77 78
M  V30 59 1 79 80
M  V30 60 1 80 81
M  V30 61 1 82 83
M  V30 62 1 83 84
M  V30 63 1 85 86
M  V30 64 1 86 87
M  V30 65 1 88 89
M  V30 66 1 89 90
M  V30 67 1 91 92
M  V30 68 1 92 93
M  V30 69 1 94 95
M  V30 70 1 95 96
M  V30 71 1 97 98
M  V30 72 1 98 99
M  V30 73 1 2 49
M  V30 74 1 3 97
M  V30 75 1 4 91
M  V30 76 1 5 64
M  V30 77 1 7 46
M  V30 78 1 8 82
M  V30 79 1 9 61
M  V30 80 1 10 55
M  V30 81 1 12 58
M  V30 82 1 13 70
M  V30 83 1 14 88
M  V30 84 1 15 52
M  V30 85 1 17 90
M  V30 86 1 18 79
M  V30 87 1 19 76
M  V30 88 1 20 85
M  V30 89 1 22 48
M  V30 90 1 23 72
M  V30 91 1 24 78
M  V30 92 1 25 73
M  V30 93 1 27 81
M  V30 94 1 28 67
M  V30 95 1 29 93
M  V30 96 1 30 87
M  V30 97 1 32 51
M  V30 98 1 33 69
M  V30 99 1 34 54
M  V30 100 1 35 60
M  V30 101 1 37 75
M  V30 102 1 38 94
M  V30 103 1 39 63
M  V30 104 1 40 66
M  V30 105 1 42 84
M  V30 106 1 43 99
M  V30 107 1 44 96
M  V30 108 1 45 57
M  V30 END BOND
M  V30 END CTAB
M  END

$$$$
